data_crystal
 
_cell_length_a    22.95560
_cell_length_b    22.95560
_cell_length_c    15.88300
_cell_angle_alpha 90.00000
_cell_angle_beta  90.00000
_cell_angle_gamma 120.00000
 
_symmetry_space_group_name_Hall 'P 1'
_symmetry_space_group_name_H-M  'P 1'
 
loop_
_symmetry_equiv_pos_as_xyz
 'x,y,z' 
 
loop_
_atom_site_label
_atom_site_type_symbol
_atom_site_fract_x
_atom_site_fract_y
_atom_site_fract_z
_atom_site_charge
O          O       0.59670   0.63030   0.16230   0.0000000000
O          O       0.40330   0.36970   0.83770   0.0000000000
O          O       0.36970   0.96640   0.16230   0.0000000000
O          O       0.63030   0.03360   0.83770   0.0000000000
O          O       0.03360   0.40330   0.16230   0.0000000000
O          O       0.96640   0.59670   0.83770   0.0000000000
O          O       0.63030   0.59670   0.33770   0.0000000000
O          O       0.36970   0.40330   0.66230   0.0000000000
O          O       0.96640   0.36970   0.33770   0.0000000000
O          O       0.03360   0.63030   0.66230   0.0000000000
O          O       0.40330   0.03360   0.33770   0.0000000000
O          O       0.59670   0.96640   0.66230   0.0000000000
O          O       0.26337   0.96363   0.49563   0.0000000000
O          O       0.06997   0.70303   0.17103   0.0000000000
O          O       0.03637   0.29973   0.49563   0.0000000000
O          O       0.29697   0.36693   0.17103   0.0000000000
O          O       0.70027   0.73663   0.49563   0.0000000000
O          O       0.63307   0.93003   0.17103   0.0000000000
O          O       0.29697   0.93003   0.67103   0.0000000000
O          O       0.03637   0.73663   0.99563   0.0000000000
O          O       0.63307   0.70303   0.67103   0.0000000000
O          O       0.70027   0.96363   0.99563   0.0000000000
O          O       0.06997   0.36693   0.67103   0.0000000000
O          O       0.26337   0.29973   0.99563   0.0000000000
O          O       0.93003   0.29697   0.82897   0.0000000000
O          O       0.73663   0.03637   0.50437   0.0000000000
O          O       0.70303   0.63307   0.82897   0.0000000000
O          O       0.96363   0.70027   0.50437   0.0000000000
O          O       0.36693   0.06997   0.82897   0.0000000000
O          O       0.29973   0.26337   0.50437   0.0000000000
O          O       0.96363   0.26337   0.00437   0.0000000000
O          O       0.70303   0.06997   0.32897   0.0000000000
O          O       0.29973   0.03637   0.00437   0.0000000000
O          O       0.36693   0.29697   0.32897   0.0000000000
O          O       0.73663   0.70027   0.00437   0.0000000000
O          O       0.93003   0.63307   0.32897   0.0000000000
C          C       0.67500   0.83280   0.92120   0.0000000000
C          C       0.32500   0.16720   0.07880   0.0000000000
C          C       0.16720   0.84220   0.92120   0.0000000000
C          C       0.83280   0.15780   0.07880   0.0000000000
C          C       0.15780   0.32500   0.92120   0.0000000000
C          C       0.84220   0.67500   0.07880   0.0000000000
C          C       0.83280   0.67500   0.57880   0.0000000000
C          C       0.16720   0.32500   0.42120   0.0000000000
C          C       0.84220   0.16720   0.57880   0.0000000000
C          C       0.15780   0.83280   0.42120   0.0000000000
C          C       0.32500   0.15780   0.57880   0.0000000000
C          C       0.67500   0.84220   0.42120   0.0000000000
C          C       0.34167   0.16613   0.25453   0.0000000000
C          C       0.99167   0.50053   0.41213   0.0000000000
C          C       0.83387   0.17553   0.25453   0.0000000000
C          C       0.49947   0.49113   0.41213   0.0000000000
C          C       0.82447   0.65833   0.25453   0.0000000000
C          C       0.50887   0.00833   0.41213   0.0000000000
C          C       0.49947   0.00833   0.91213   0.0000000000
C          C       0.83387   0.65833   0.75453   0.0000000000
C          C       0.50887   0.50053   0.91213   0.0000000000
C          C       0.82447   0.16613   0.75453   0.0000000000
C          C       0.99167   0.49113   0.91213   0.0000000000
C          C       0.34167   0.17553   0.75453   0.0000000000
C          C       0.00833   0.49947   0.58787   0.0000000000
C          C       0.65833   0.83387   0.74547   0.0000000000
C          C       0.50053   0.50887   0.58787   0.0000000000
C          C       0.16613   0.82447   0.74547   0.0000000000
C          C       0.49113   0.99167   0.58787   0.0000000000
C          C       0.17553   0.34167   0.74547   0.0000000000
C          C       0.16613   0.34167   0.24547   0.0000000000
C          C       0.50053   0.99167   0.08787   0.0000000000
C          C       0.17553   0.83387   0.24547   0.0000000000
C          C       0.49113   0.49947   0.08787   0.0000000000
C          C       0.65833   0.82447   0.24547   0.0000000000
C          C       0.00833   0.50887   0.08787   0.0000000000
C          C       0.68780   0.89240   0.87860   0.0000000000
C          C       0.31220   0.10760   0.12140   0.0000000000
C          C       0.10760   0.79540   0.87860   0.0000000000
C          C       0.89240   0.20460   0.12140   0.0000000000
C          C       0.20460   0.31220   0.87860   0.0000000000
C          C       0.79540   0.68780   0.12140   0.0000000000
C          C       0.89240   0.68780   0.62140   0.0000000000
C          C       0.10760   0.31220   0.37860   0.0000000000
C          C       0.79540   0.10760   0.62140   0.0000000000
C          C       0.20460   0.89240   0.37860   0.0000000000
C          C       0.31220   0.20460   0.62140   0.0000000000
C          C       0.68780   0.79540   0.37860   0.0000000000
C          C       0.35447   0.22573   0.21193   0.0000000000
C          C       0.97887   0.44093   0.45473   0.0000000000
C          C       0.77427   0.12873   0.21193   0.0000000000
C          C       0.55907   0.53793   0.45473   0.0000000000
C          C       0.87127   0.64553   0.21193   0.0000000000
C          C       0.46207   0.02113   0.45473   0.0000000000
C          C       0.55907   0.02113   0.95473   0.0000000000
C          C       0.77427   0.64553   0.71193   0.0000000000
C          C       0.46207   0.44093   0.95473   0.0000000000
C          C       0.87127   0.22573   0.71193   0.0000000000
C          C       0.97887   0.53793   0.95473   0.0000000000
C          C       0.35447   0.12873   0.71193   0.0000000000
C          C       0.02113   0.55907   0.54527   0.0000000000
C          C       0.64553   0.77427   0.78807   0.0000000000
C          C       0.44093   0.46207   0.54527   0.0000000000
C          C       0.22573   0.87127   0.78807   0.0000000000
C          C       0.53793   0.97887   0.54527   0.0000000000
C          C       0.12873   0.35447   0.78807   0.0000000000
C          C       0.22573   0.35447   0.28807   0.0000000000
C          C       0.44093   0.97887   0.04527   0.0000000000
C          C       0.12873   0.77427   0.28807   0.0000000000
C          C       0.53793   0.55907   0.04527   0.0000000000
C          C       0.64553   0.87127   0.28807   0.0000000000
C          C       0.02113   0.46207   0.04527   0.0000000000
C          C       0.65270   0.77310   0.87610   0.0000000000
C          C       0.34730   0.22690   0.12390   0.0000000000
C          C       0.22690   0.87960   0.87610   0.0000000000
C          C       0.77310   0.12040   0.12390   0.0000000000
C          C       0.12040   0.34730   0.87610   0.0000000000
C          C       0.87960   0.65270   0.12390   0.0000000000
C          C       0.77310   0.65270   0.62390   0.0000000000
C          C       0.22690   0.34730   0.37610   0.0000000000
C          C       0.87960   0.22690   0.62390   0.0000000000
C          C       0.12040   0.77310   0.37610   0.0000000000
C          C       0.34730   0.12040   0.62390   0.0000000000
C          C       0.65270   0.87960   0.37610   0.0000000000
C          C       0.31937   0.10643   0.20943   0.0000000000
C          C       0.01397   0.56023   0.45723   0.0000000000
C          C       0.89357   0.21293   0.20943   0.0000000000
C          C       0.43977   0.45373   0.45723   0.0000000000
C          C       0.78707   0.68063   0.20943   0.0000000000
C          C       0.54627   0.98603   0.45723   0.0000000000
C          C       0.43977   0.98603   0.95723   0.0000000000
C          C       0.89357   0.68063   0.70943   0.0000000000
C          C       0.54627   0.56023   0.95723   0.0000000000
C          C       0.78707   0.10643   0.70943   0.0000000000
C          C       0.01397   0.45373   0.95723   0.0000000000
C          C       0.31937   0.21293   0.70943   0.0000000000
C          C       0.98603   0.43977   0.54277   0.0000000000
C          C       0.68063   0.89357   0.79057   0.0000000000
C          C       0.56023   0.54627   0.54277   0.0000000000
C          C       0.10643   0.78707   0.79057   0.0000000000
C          C       0.45373   0.01397   0.54277   0.0000000000
C          C       0.21293   0.31937   0.79057   0.0000000000
C          C       0.10643   0.31937   0.29057   0.0000000000
C          C       0.56023   0.01397   0.04277   0.0000000000
C          C       0.21293   0.89357   0.29057   0.0000000000
C          C       0.45373   0.43977   0.04277   0.0000000000
C          C       0.68063   0.78707   0.29057   0.0000000000
C          C       0.98603   0.54627   0.04277   0.0000000000
H          H       0.64270   0.73340   0.90360   0.0000000000
H          H       0.35730   0.26660   0.09640   0.0000000000
H          H       0.26660   0.90930   0.90360   0.0000000000
H          H       0.73340   0.09070   0.09640   0.0000000000
H          H       0.09070   0.35730   0.90360   0.0000000000
H          H       0.90930   0.64270   0.09640   0.0000000000
H          H       0.73340   0.64270   0.59640   0.0000000000
H          H       0.26660   0.35730   0.40360   0.0000000000
H          H       0.90930   0.26660   0.59640   0.0000000000
H          H       0.09070   0.73340   0.40360   0.0000000000
H          H       0.35730   0.09070   0.59640   0.0000000000
H          H       0.64270   0.90930   0.40360   0.0000000000
H          H       0.30937   0.06673   0.23693   0.0000000000
H          H       0.02397   0.59993   0.42973   0.0000000000
H          H       0.93327   0.24263   0.23693   0.0000000000
H          H       0.40007   0.42403   0.42973   0.0000000000
H          H       0.75737   0.69063   0.23693   0.0000000000
H          H       0.57597   0.97603   0.42973   0.0000000000
H          H       0.40007   0.97603   0.92973   0.0000000000
H          H       0.93327   0.69063   0.73693   0.0000000000
H          H       0.57597   0.59993   0.92973   0.0000000000
H          H       0.75737   0.06673   0.73693   0.0000000000
H          H       0.02397   0.42403   0.92973   0.0000000000
H          H       0.30937   0.24263   0.73693   0.0000000000
H          H       0.97603   0.40007   0.57027   0.0000000000
H          H       0.69063   0.93327   0.76307   0.0000000000
H          H       0.59993   0.57597   0.57027   0.0000000000
H          H       0.06673   0.75737   0.76307   0.0000000000
H          H       0.42403   0.02397   0.57027   0.0000000000
H          H       0.24263   0.30937   0.76307   0.0000000000
H          H       0.06673   0.30937   0.26307   0.0000000000
H          H       0.59993   0.02397   0.07027   0.0000000000
H          H       0.24263   0.93327   0.26307   0.0000000000
H          H       0.42403   0.40007   0.07027   0.0000000000
H          H       0.69063   0.75737   0.26307   0.0000000000
H          H       0.97603   0.57597   0.07027   0.0000000000
C          C       0.57540   0.62480   0.08770   0.0000000000
C          C       0.42460   0.37520   0.91230   0.0000000000
C          C       0.37520   0.95060   0.08770   0.0000000000
C          C       0.62480   0.04940   0.91230   0.0000000000
C          C       0.04940   0.42460   0.08770   0.0000000000
C          C       0.95060   0.57540   0.91230   0.0000000000
C          C       0.62480   0.57540   0.41230   0.0000000000
C          C       0.37520   0.42460   0.58770   0.0000000000
C          C       0.95060   0.37520   0.41230   0.0000000000
C          C       0.04940   0.62480   0.58770   0.0000000000
C          C       0.42460   0.04940   0.41230   0.0000000000
C          C       0.57540   0.95060   0.58770   0.0000000000
C          C       0.24207   0.95813   0.42103   0.0000000000
C          C       0.09127   0.70853   0.24563   0.0000000000
C          C       0.04187   0.28393   0.42103   0.0000000000
C          C       0.29147   0.38273   0.24563   0.0000000000
C          C       0.71607   0.75793   0.42103   0.0000000000
C          C       0.61727   0.90873   0.24563   0.0000000000
C          C       0.29147   0.90873   0.74563   0.0000000000
C          C       0.04187   0.75793   0.92103   0.0000000000
C          C       0.61727   0.70853   0.74563   0.0000000000
C          C       0.71607   0.95813   0.92103   0.0000000000
C          C       0.09127   0.38273   0.74563   0.0000000000
C          C       0.24207   0.28393   0.92103   0.0000000000
C          C       0.90873   0.29147   0.75437   0.0000000000
C          C       0.75793   0.04187   0.57897   0.0000000000
C          C       0.70853   0.61727   0.75437   0.0000000000
C          C       0.95813   0.71607   0.57897   0.0000000000
C          C       0.38273   0.09127   0.75437   0.0000000000
C          C       0.28393   0.24207   0.57897   0.0000000000
C          C       0.95813   0.24207   0.07897   0.0000000000
C          C       0.70853   0.09127   0.25437   0.0000000000
C          C       0.28393   0.04187   0.07897   0.0000000000
C          C       0.38273   0.29147   0.25437   0.0000000000
C          C       0.75793   0.71607   0.07897   0.0000000000
C          C       0.90873   0.61727   0.25437   0.0000000000
O          O       0.59360   0.67900   0.04500   0.0000000000
O          O       0.40640   0.32100   0.95500   0.0000000000
O          O       0.32100   0.91460   0.04500   0.0000000000
O          O       0.67900   0.08540   0.95500   0.0000000000
O          O       0.08540   0.40640   0.04500   0.0000000000
O          O       0.91460   0.59360   0.95500   0.0000000000
O          O       0.67900   0.59360   0.45500   0.0000000000
O          O       0.32100   0.40640   0.54500   0.0000000000
O          O       0.91460   0.32100   0.45500   0.0000000000
O          O       0.08540   0.67900   0.54500   0.0000000000
O          O       0.40640   0.08540   0.45500   0.0000000000
O          O       0.59360   0.91460   0.54500   0.0000000000
O          O       0.26027   0.01233   0.37833   0.0000000000
O          O       0.07307   0.65433   0.28833   0.0000000000
O          O       0.98767   0.24793   0.37833   0.0000000000
O          O       0.34567   0.41873   0.28833   0.0000000000
O          O       0.75207   0.73973   0.37833   0.0000000000
O          O       0.58127   0.92693   0.28833   0.0000000000
O          O       0.34567   0.92693   0.78833   0.0000000000
O          O       0.98767   0.73973   0.87833   0.0000000000
O          O       0.58127   0.65433   0.78833   0.0000000000
O          O       0.75207   0.01233   0.87833   0.0000000000
O          O       0.07307   0.41873   0.78833   0.0000000000
O          O       0.26027   0.24793   0.87833   0.0000000000
O          O       0.92693   0.34567   0.71167   0.0000000000
O          O       0.73973   0.98767   0.62167   0.0000000000
O          O       0.65433   0.58127   0.71167   0.0000000000
O          O       0.01233   0.75207   0.62167   0.0000000000
O          O       0.41873   0.07307   0.71167   0.0000000000
O          O       0.24793   0.26027   0.62167   0.0000000000
O          O       0.01233   0.26027   0.12167   0.0000000000
O          O       0.65433   0.07307   0.21167   0.0000000000
O          O       0.24793   0.98767   0.12167   0.0000000000
O          O       0.41873   0.34567   0.21167   0.0000000000
O          O       0.73973   0.75207   0.12167   0.0000000000
O          O       0.92693   0.58127   0.21167   0.0000000000
O          O       0.68350   0.83430   0.00600   0.0000000000
O          O       0.31650   0.16570   0.99400   0.0000000000
O          O       0.16570   0.84920   0.00600   0.0000000000
O          O       0.83430   0.15080   0.99400   0.0000000000
O          O       0.15080   0.31650   0.00600   0.0000000000
O          O       0.84920   0.68350   0.99400   0.0000000000
O          O       0.83430   0.68350   0.49400   0.0000000000
O          O       0.16570   0.31650   0.50600   0.0000000000
O          O       0.84920   0.16570   0.49400   0.0000000000
O          O       0.15080   0.83430   0.50600   0.0000000000
O          O       0.31650   0.15080   0.49400   0.0000000000
O          O       0.68350   0.84920   0.50600   0.0000000000
O          O       0.35017   0.16763   0.33933   0.0000000000
O          O       0.98317   0.49903   0.32733   0.0000000000
O          O       0.83237   0.18253   0.33933   0.0000000000
O          O       0.50097   0.48413   0.32733   0.0000000000
O          O       0.81747   0.64983   0.33933   0.0000000000
O          O       0.51587   0.01683   0.32733   0.0000000000
O          O       0.50097   0.01683   0.82733   0.0000000000
O          O       0.83237   0.64983   0.83933   0.0000000000
O          O       0.51587   0.49903   0.82733   0.0000000000
O          O       0.81747   0.16763   0.83933   0.0000000000
O          O       0.98317   0.48413   0.82733   0.0000000000
O          O       0.35017   0.18253   0.83933   0.0000000000
O          O       0.01683   0.50097   0.67267   0.0000000000
O          O       0.64983   0.83237   0.66067   0.0000000000
O          O       0.49903   0.51587   0.67267   0.0000000000
O          O       0.16763   0.81747   0.66067   0.0000000000
O          O       0.48413   0.98317   0.67267   0.0000000000
O          O       0.18253   0.35017   0.66067   0.0000000000
O          O       0.16763   0.35017   0.16067   0.0000000000
O          O       0.49903   0.98317   0.17267   0.0000000000
O          O       0.18253   0.83237   0.16067   0.0000000000
O          O       0.48413   0.50097   0.17267   0.0000000000
O          O       0.64983   0.81747   0.16067   0.0000000000
O          O       0.01683   0.51587   0.17267   0.0000000000
Zn         Zn      0.66667   0.76134   0.08333   0.0000000000
Zn         Zn      0.33333   0.23866   0.91667   0.0000000000
Zn         Zn      0.23866   0.90533   0.08333   0.0000000000
Zn         Zn      0.76134   0.09467   0.91667   0.0000000000
Zn         Zn      0.09467   0.33333   0.08333   0.0000000000
Zn         Zn      0.90533   0.66667   0.91667   0.0000000000
Zn         Zn      0.76134   0.66667   0.41667   0.0000000000
Zn         Zn      0.23866   0.33333   0.58333   0.0000000000
Zn         Zn      0.90533   0.23866   0.41667   0.0000000000
Zn         Zn      0.09467   0.76134   0.58333   0.0000000000
Zn         Zn      0.33333   0.09467   0.41667   0.0000000000
Zn         Zn      0.66667   0.90533   0.58333   0.0000000000
Zn         Zn      1.00000   0.57199   0.25000   0.0000000000
Zn         Zn      0.42801   0.42801   0.25000   0.0000000000
Zn         Zn      0.57199   0.00000   0.25000   0.0000000000
Zn         Zn      0.42801   0.00000   0.75000   0.0000000000
Zn         Zn      0.57199   0.57199   0.75000   0.0000000000
Zn         Zn      1.00000   0.42801   0.75000   0.0000000000
Zn         Zn      0.66667   0.89294   0.08333   0.0000000000
Zn         Zn      0.33333   0.10706   0.91667   0.0000000000
Zn         Zn      0.10706   0.77373   0.08333   0.0000000000
Zn         Zn      0.89294   0.22627   0.91667   0.0000000000
Zn         Zn      0.22627   0.33333   0.08333   0.0000000000
Zn         Zn      0.77373   0.66667   0.91667   0.0000000000
Zn         Zn      0.89294   0.66667   0.41667   0.0000000000
Zn         Zn      0.10706   0.33333   0.58333   0.0000000000
Zn         Zn      0.77373   0.10706   0.41667   0.0000000000
Zn         Zn      0.22627   0.89294   0.58333   0.0000000000
Zn         Zn      0.33333   0.22627   0.41667   0.0000000000
Zn         Zn      0.66667   0.77373   0.58333   0.0000000000
Zn         Zn      1.00000   0.44039   0.25000   0.0000000000
Zn         Zn      0.55961   0.55961   0.25000   0.0000000000
Zn         Zn      0.44039   0.00000   0.25000   0.0000000000
Zn         Zn      0.55961   0.00000   0.75000   0.0000000000
Zn         Zn      0.44039   0.44039   0.75000   0.0000000000
Zn         Zn      1.00000   0.55961   0.75000   0.0000000000
