data_crystal
 
_cell_length_a    25.66900
_cell_length_b    25.66900
_cell_length_c    25.66900
_cell_angle_alpha 90.00000
_cell_angle_beta  90.00000
_cell_angle_gamma 90.00000
 
_symmetry_space_group_name_Hall 'P 1'
_symmetry_space_group_name_H-M  'P 1'
 
loop_
_symmetry_equiv_pos_as_xyz
 'x,y,z' 
 
loop_
_atom_site_label
_atom_site_type_symbol
_atom_site_fract_x
_atom_site_fract_y
_atom_site_fract_z
_atom_site_charge
Zn         Zn      0.29351   0.20651   0.20651   0.00000
Zn         Zn      0.70649   0.79349   0.20651   0.00000
Zn         Zn      0.70649   0.20651   0.79349   0.00000
Zn         Zn      0.29351   0.79349   0.79349   0.00000
Zn         Zn      0.20651   0.29351   0.20651   0.00000
Zn         Zn      0.20651   0.70649   0.79349   0.00000
Zn         Zn      0.79349   0.70649   0.20651   0.00000
Zn         Zn      0.79349   0.29351   0.79349   0.00000
Zn         Zn      0.20651   0.20651   0.29351   0.00000
Zn         Zn      0.79349   0.20651   0.70649   0.00000
Zn         Zn      0.20651   0.79349   0.70649   0.00000
Zn         Zn      0.79349   0.79349   0.29351   0.00000
Zn         Zn      0.20651   0.29351   0.79349   0.00000
Zn         Zn      0.79349   0.70649   0.79349   0.00000
Zn         Zn      0.20651   0.70649   0.20651   0.00000
Zn         Zn      0.79349   0.29351   0.20651   0.00000
Zn         Zn      0.29351   0.20651   0.79349   0.00000
Zn         Zn      0.70649   0.20651   0.20651   0.00000
Zn         Zn      0.70649   0.79349   0.79349   0.00000
Zn         Zn      0.29351   0.79349   0.20651   0.00000
Zn         Zn      0.20651   0.20651   0.70649   0.00000
Zn         Zn      0.20651   0.79349   0.29351   0.00000
Zn         Zn      0.79349   0.20651   0.29351   0.00000
Zn         Zn      0.79349   0.79349   0.70649   0.00000
Zn         Zn      0.29351   0.70649   0.70649   0.00000
Zn         Zn      0.70649   0.29351   0.70649   0.00000
Zn         Zn      0.70649   0.70649   0.29351   0.00000
Zn         Zn      0.29351   0.29351   0.29351   0.00000
Zn         Zn      0.29351   0.70649   0.29351   0.00000
Zn         Zn      0.70649   0.70649   0.70649   0.00000
Zn         Zn      0.70649   0.29351   0.29351   0.00000
Zn         Zn      0.29351   0.29351   0.70649   0.00000
O          O       0.24999   0.24999   0.24999   0.00000
O          O       0.75001   0.75001   0.24999   0.00000
O          O       0.75001   0.24999   0.75001   0.00000
O          O       0.24999   0.75001   0.75001   0.00000
O          O       0.24999   0.24999   0.75001   0.00000
O          O       0.75001   0.75001   0.75001   0.00000
O          O       0.24999   0.75001   0.24999   0.00000
O          O       0.75001   0.24999   0.24999   0.00000
O          O       0.28182   0.21820   0.13390   0.00000
O          O       0.71818   0.78180   0.13390   0.00000
O          O       0.71818   0.21820   0.86610   0.00000
O          O       0.28182   0.78180   0.86610   0.00000
O          O       0.13390   0.28182   0.21820   0.00000
O          O       0.13390   0.71818   0.78180   0.00000
O          O       0.86610   0.71818   0.21820   0.00000
O          O       0.86610   0.28182   0.78180   0.00000
O          O       0.21820   0.13390   0.28182   0.00000
O          O       0.78180   0.13390   0.71818   0.00000
O          O       0.21820   0.86610   0.71818   0.00000
O          O       0.78180   0.86610   0.28182   0.00000
O          O       0.21820   0.28182   0.86610   0.00000
O          O       0.78180   0.71818   0.86610   0.00000
O          O       0.21820   0.71818   0.13390   0.00000
O          O       0.78180   0.28182   0.13390   0.00000
O          O       0.28182   0.13390   0.78180   0.00000
O          O       0.71818   0.13390   0.21820   0.00000
O          O       0.71818   0.86610   0.78180   0.00000
O          O       0.28182   0.86610   0.21820   0.00000
O          O       0.13390   0.21820   0.71818   0.00000
O          O       0.13390   0.78180   0.28182   0.00000
O          O       0.86610   0.21820   0.28182   0.00000
O          O       0.86610   0.78180   0.71818   0.00000
O          O       0.71818   0.78180   0.86610   0.00000
O          O       0.28182   0.21820   0.86610   0.00000
O          O       0.28182   0.78180   0.13390   0.00000
O          O       0.71818   0.21820   0.13390   0.00000
O          O       0.86610   0.71818   0.78180   0.00000
O          O       0.86610   0.28182   0.21820   0.00000
O          O       0.13390   0.28182   0.78180   0.00000
O          O       0.13390   0.71818   0.21820   0.00000
O          O       0.78180   0.86610   0.71818   0.00000
O          O       0.21820   0.86610   0.28182   0.00000
O          O       0.78180   0.13390   0.28182   0.00000
O          O       0.21820   0.13390   0.71818   0.00000
O          O       0.78180   0.71818   0.13390   0.00000
O          O       0.21820   0.28182   0.13390   0.00000
O          O       0.78180   0.28182   0.86610   0.00000
O          O       0.21820   0.71818   0.86610   0.00000
O          O       0.71818   0.86610   0.21820   0.00000
O          O       0.28182   0.86610   0.78180   0.00000
O          O       0.28182   0.13390   0.21820   0.00000
O          O       0.71818   0.13390   0.78180   0.00000
O          O       0.86610   0.78180   0.28182   0.00000
O          O       0.86610   0.21820   0.71818   0.00000
O          O       0.13390   0.78180   0.71818   0.00000
O          O       0.13390   0.21820   0.28182   0.00000
O          O       0.28182   0.71818   0.63392   0.00000
O          O       0.71818   0.28182   0.63392   0.00000
O          O       0.71818   0.71818   0.36608   0.00000
O          O       0.28182   0.28182   0.36608   0.00000
O          O       0.21820   0.63392   0.78180   0.00000
O          O       0.78180   0.63392   0.21820   0.00000
O          O       0.21820   0.36608   0.21820   0.00000
O          O       0.78180   0.36608   0.78180   0.00000
O          O       0.21820   0.78180   0.36608   0.00000
O          O       0.78180   0.21820   0.36608   0.00000
O          O       0.21820   0.21820   0.63392   0.00000
O          O       0.78180   0.78180   0.63392   0.00000
O          O       0.28182   0.63392   0.28182   0.00000
O          O       0.71818   0.63392   0.71818   0.00000
O          O       0.71818   0.36608   0.28182   0.00000
O          O       0.28182   0.36608   0.71818   0.00000
O          O       0.71818   0.28182   0.36608   0.00000
O          O       0.28182   0.71818   0.36608   0.00000
O          O       0.28182   0.28182   0.63392   0.00000
O          O       0.71818   0.71818   0.63392   0.00000
O          O       0.78180   0.36608   0.21820   0.00000
O          O       0.21820   0.36608   0.78180   0.00000
O          O       0.78180   0.63392   0.78180   0.00000
O          O       0.21820   0.63392   0.21820   0.00000
O          O       0.78180   0.21820   0.63392   0.00000
O          O       0.21820   0.78180   0.63392   0.00000
O          O       0.78180   0.78180   0.36608   0.00000
O          O       0.21820   0.21820   0.36608   0.00000
O          O       0.71818   0.36608   0.71818   0.00000
O          O       0.28182   0.36608   0.28182   0.00000
O          O       0.28182   0.63392   0.71818   0.00000
O          O       0.71818   0.63392   0.28182   0.00000
O          O       0.63392   0.28182   0.71818   0.00000
O          O       0.63392   0.71818   0.28182   0.00000
O          O       0.36608   0.71818   0.71818   0.00000
O          O       0.36608   0.28182   0.28182   0.00000
O          O       0.63392   0.21820   0.21820   0.00000
O          O       0.63392   0.78180   0.78180   0.00000
O          O       0.36608   0.21820   0.78180   0.00000
O          O       0.36608   0.78180   0.21820   0.00000
O          O       0.36608   0.71818   0.28182   0.00000
O          O       0.36608   0.28182   0.71818   0.00000
O          O       0.63392   0.28182   0.28182   0.00000
O          O       0.63392   0.71818   0.71818   0.00000
O          O       0.36608   0.78180   0.78180   0.00000
O          O       0.36608   0.21820   0.21820   0.00000
O          O       0.63392   0.78180   0.21820   0.00000
O          O       0.63392   0.21820   0.78180   0.00000
C          C       0.24999   0.24999   0.11048   0.00000
C          C       0.75001   0.75001   0.11048   0.00000
C          C       0.75001   0.24999   0.88952   0.00000
C          C       0.24999   0.75001   0.88952   0.00000
C          C       0.11048   0.24999   0.24999   0.00000
C          C       0.11048   0.75001   0.75001   0.00000
C          C       0.88952   0.75001   0.24999   0.00000
C          C       0.88952   0.24999   0.75001   0.00000
C          C       0.24999   0.11048   0.24999   0.00000
C          C       0.75001   0.11048   0.75001   0.00000
C          C       0.24999   0.88952   0.75001   0.00000
C          C       0.75001   0.88952   0.24999   0.00000
C          C       0.24999   0.24999   0.88952   0.00000
C          C       0.75001   0.75001   0.88952   0.00000
C          C       0.24999   0.75001   0.11048   0.00000
C          C       0.75001   0.24999   0.11048   0.00000
C          C       0.24999   0.11048   0.75001   0.00000
C          C       0.75001   0.11048   0.24999   0.00000
C          C       0.75001   0.88952   0.75001   0.00000
C          C       0.24999   0.88952   0.24999   0.00000
C          C       0.11048   0.24999   0.75001   0.00000
C          C       0.11048   0.75001   0.24999   0.00000
C          C       0.88952   0.24999   0.24999   0.00000
C          C       0.88952   0.75001   0.75001   0.00000
C          C       0.24999   0.75001   0.61050   0.00000
C          C       0.75001   0.24999   0.61050   0.00000
C          C       0.75001   0.75001   0.38950   0.00000
C          C       0.24999   0.24999   0.38950   0.00000
C          C       0.24999   0.61050   0.75001   0.00000
C          C       0.75001   0.61050   0.24999   0.00000
C          C       0.24999   0.38950   0.24999   0.00000
C          C       0.75001   0.38950   0.75001   0.00000
C          C       0.24999   0.75001   0.38950   0.00000
C          C       0.75001   0.24999   0.38950   0.00000
C          C       0.24999   0.24999   0.61050   0.00000
C          C       0.75001   0.75001   0.61050   0.00000
C          C       0.24999   0.61050   0.24999   0.00000
C          C       0.75001   0.61050   0.75001   0.00000
C          C       0.75001   0.38950   0.24999   0.00000
C          C       0.24999   0.38950   0.75001   0.00000
C          C       0.61050   0.24999   0.75001   0.00000
C          C       0.61050   0.75001   0.24999   0.00000
C          C       0.38950   0.75001   0.75001   0.00000
C          C       0.38950   0.24999   0.24999   0.00000
C          C       0.61050   0.24999   0.24999   0.00000
C          C       0.61050   0.75001   0.75001   0.00000
C          C       0.38950   0.24999   0.75001   0.00000
C          C       0.38950   0.75001   0.24999   0.00000
C          C       0.28310   0.21692   0.02630   0.00000
C          C       0.71690   0.78308   0.02630   0.00000
C          C       0.71690   0.21692   0.97370   0.00000
C          C       0.28310   0.78308   0.97370   0.00000
C          C       0.02630   0.28310   0.21692   0.00000
C          C       0.02630   0.71690   0.78308   0.00000
C          C       0.97370   0.71690   0.21692   0.00000
C          C       0.97370   0.28310   0.78308   0.00000
C          C       0.21692   0.02630   0.28310   0.00000
C          C       0.78308   0.02630   0.71690   0.00000
C          C       0.21692   0.97370   0.71690   0.00000
C          C       0.78308   0.97370   0.28310   0.00000
C          C       0.21692   0.28310   0.97370   0.00000
C          C       0.78308   0.71690   0.97370   0.00000
C          C       0.21692   0.71690   0.02630   0.00000
C          C       0.78308   0.28310   0.02630   0.00000
C          C       0.28310   0.02630   0.78308   0.00000
C          C       0.71690   0.02630   0.21692   0.00000
C          C       0.71690   0.97370   0.78308   0.00000
C          C       0.28310   0.97370   0.21692   0.00000
C          C       0.02630   0.21692   0.71690   0.00000
C          C       0.02630   0.78308   0.28310   0.00000
C          C       0.97370   0.21692   0.28310   0.00000
C          C       0.97370   0.78308   0.71690   0.00000
C          C       0.71690   0.78308   0.97370   0.00000
C          C       0.28310   0.21692   0.97370   0.00000
C          C       0.28310   0.78308   0.02630   0.00000
C          C       0.71690   0.21692   0.02630   0.00000
C          C       0.97370   0.71690   0.78308   0.00000
C          C       0.97370   0.28310   0.21692   0.00000
C          C       0.02630   0.28310   0.78308   0.00000
C          C       0.02630   0.71690   0.21692   0.00000
C          C       0.78308   0.97370   0.71690   0.00000
C          C       0.21692   0.97370   0.28310   0.00000
C          C       0.78308   0.02630   0.28310   0.00000
C          C       0.21692   0.02630   0.71690   0.00000
C          C       0.78308   0.71690   0.02630   0.00000
C          C       0.21692   0.28310   0.02630   0.00000
C          C       0.78308   0.28310   0.97370   0.00000
C          C       0.21692   0.71690   0.97370   0.00000
C          C       0.71690   0.97370   0.21692   0.00000
C          C       0.28310   0.97370   0.78308   0.00000
C          C       0.28310   0.02630   0.21692   0.00000
C          C       0.71690   0.02630   0.78308   0.00000
C          C       0.97370   0.78308   0.28310   0.00000
C          C       0.97370   0.21692   0.71690   0.00000
C          C       0.02630   0.78308   0.71690   0.00000
C          C       0.02630   0.21692   0.28310   0.00000
C          C       0.28310   0.71690   0.52632   0.00000
C          C       0.71690   0.28310   0.52632   0.00000
C          C       0.71690   0.71690   0.47368   0.00000
C          C       0.28310   0.28310   0.47368   0.00000
C          C       0.21692   0.52632   0.78308   0.00000
C          C       0.78308   0.52632   0.21692   0.00000
C          C       0.21692   0.47368   0.21692   0.00000
C          C       0.78308   0.47368   0.78308   0.00000
C          C       0.21692   0.78308   0.47368   0.00000
C          C       0.78308   0.21692   0.47368   0.00000
C          C       0.21692   0.21692   0.52632   0.00000
C          C       0.78308   0.78308   0.52632   0.00000
C          C       0.28310   0.52632   0.28310   0.00000
C          C       0.71690   0.52632   0.71690   0.00000
C          C       0.71690   0.47368   0.28310   0.00000
C          C       0.28310   0.47368   0.71690   0.00000
C          C       0.71690   0.28310   0.47368   0.00000
C          C       0.28310   0.71690   0.47368   0.00000
C          C       0.28310   0.28310   0.52632   0.00000
C          C       0.71690   0.71690   0.52632   0.00000
C          C       0.78308   0.47368   0.21692   0.00000
C          C       0.21692   0.47368   0.78308   0.00000
C          C       0.78308   0.52632   0.78308   0.00000
C          C       0.21692   0.52632   0.21692   0.00000
C          C       0.78308   0.21692   0.52632   0.00000
C          C       0.21692   0.78308   0.52632   0.00000
C          C       0.78308   0.78308   0.47368   0.00000
C          C       0.21692   0.21692   0.47368   0.00000
C          C       0.71690   0.47368   0.71690   0.00000
C          C       0.28310   0.47368   0.28310   0.00000
C          C       0.28310   0.52632   0.71690   0.00000
C          C       0.71690   0.52632   0.28310   0.00000
C          C       0.52632   0.28310   0.71690   0.00000
C          C       0.52632   0.71690   0.28310   0.00000
C          C       0.47368   0.71690   0.71690   0.00000
C          C       0.47368   0.28310   0.28310   0.00000
C          C       0.52632   0.21692   0.21692   0.00000
C          C       0.52632   0.78308   0.78308   0.00000
C          C       0.47368   0.21692   0.78308   0.00000
C          C       0.47368   0.78308   0.21692   0.00000
C          C       0.47368   0.71690   0.28310   0.00000
C          C       0.47368   0.28310   0.71690   0.00000
C          C       0.52632   0.28310   0.28310   0.00000
C          C       0.52632   0.71690   0.71690   0.00000
C          C       0.47368   0.78308   0.78308   0.00000
C          C       0.47368   0.21692   0.21692   0.00000
C          C       0.52632   0.78308   0.21692   0.00000
C          C       0.52632   0.21692   0.78308   0.00000
C          C       0.24999   0.24999   0.05380   0.00000
C          C       0.75001   0.75001   0.05380   0.00000
C          C       0.75001   0.24999   0.94620   0.00000
C          C       0.24999   0.75001   0.94620   0.00000
C          C       0.05380   0.24999   0.24999   0.00000
C          C       0.05380   0.75001   0.75001   0.00000
C          C       0.94620   0.75001   0.24999   0.00000
C          C       0.94620   0.24999   0.75001   0.00000
C          C       0.24999   0.05380   0.24999   0.00000
C          C       0.75001   0.05380   0.75001   0.00000
C          C       0.24999   0.94620   0.75001   0.00000
C          C       0.75001   0.94620   0.24999   0.00000
C          C       0.24999   0.24999   0.94620   0.00000
C          C       0.75001   0.75001   0.94620   0.00000
C          C       0.24999   0.75001   0.05380   0.00000
C          C       0.75001   0.24999   0.05380   0.00000
C          C       0.24999   0.05380   0.75001   0.00000
C          C       0.75001   0.05380   0.24999   0.00000
C          C       0.75001   0.94620   0.75001   0.00000
C          C       0.24999   0.94620   0.24999   0.00000
C          C       0.05380   0.24999   0.75001   0.00000
C          C       0.05380   0.75001   0.24999   0.00000
C          C       0.94620   0.24999   0.24999   0.00000
C          C       0.94620   0.75001   0.75001   0.00000
C          C       0.24999   0.75001   0.55378   0.00000
C          C       0.75001   0.24999   0.55378   0.00000
C          C       0.75001   0.75001   0.44622   0.00000
C          C       0.24999   0.24999   0.44622   0.00000
C          C       0.24999   0.55378   0.75001   0.00000
C          C       0.75001   0.55378   0.24999   0.00000
C          C       0.24999   0.44622   0.24999   0.00000
C          C       0.75001   0.44622   0.75001   0.00000
C          C       0.24999   0.75001   0.44622   0.00000
C          C       0.75001   0.24999   0.44622   0.00000
C          C       0.24999   0.24999   0.55378   0.00000
C          C       0.75001   0.75001   0.55378   0.00000
C          C       0.24999   0.55378   0.24999   0.00000
C          C       0.75001   0.55378   0.75001   0.00000
C          C       0.75001   0.44622   0.24999   0.00000
C          C       0.24999   0.44622   0.75001   0.00000
C          C       0.55378   0.24999   0.75001   0.00000
C          C       0.55378   0.75001   0.24999   0.00000
C          C       0.44622   0.75001   0.75001   0.00000
C          C       0.44622   0.24999   0.24999   0.00000
C          C       0.55378   0.24999   0.24999   0.00000
C          C       0.55378   0.75001   0.75001   0.00000
C          C       0.44622   0.24999   0.75001   0.00000
C          C       0.44622   0.75001   0.24999   0.00000
H          H       0.30589   0.19409   0.04519   0.00000
H          H       0.69411   0.80591   0.04519   0.00000
H          H       0.69411   0.19409   0.95481   0.00000
H          H       0.30589   0.80591   0.95481   0.00000
H          H       0.04519   0.30589   0.19409   0.00000
H          H       0.04519   0.69411   0.80591   0.00000
H          H       0.95481   0.69411   0.19409   0.00000
H          H       0.95481   0.30589   0.80591   0.00000
H          H       0.19409   0.04519   0.30589   0.00000
H          H       0.80591   0.04519   0.69411   0.00000
H          H       0.19409   0.95481   0.69411   0.00000
H          H       0.80591   0.95481   0.30589   0.00000
H          H       0.19409   0.30589   0.95481   0.00000
H          H       0.80591   0.69411   0.95481   0.00000
H          H       0.19409   0.69411   0.04519   0.00000
H          H       0.80591   0.30589   0.04519   0.00000
H          H       0.30589   0.04519   0.80591   0.00000
H          H       0.69411   0.04519   0.19409   0.00000
H          H       0.69411   0.95481   0.80591   0.00000
H          H       0.30589   0.95481   0.19409   0.00000
H          H       0.04519   0.19409   0.69411   0.00000
H          H       0.04519   0.80591   0.30589   0.00000
H          H       0.95481   0.19409   0.30589   0.00000
H          H       0.95481   0.80591   0.69411   0.00000
H          H       0.69411   0.80591   0.95481   0.00000
H          H       0.30589   0.19409   0.95481   0.00000
H          H       0.30589   0.80591   0.04519   0.00000
H          H       0.69411   0.19409   0.04519   0.00000
H          H       0.95481   0.69411   0.80591   0.00000
H          H       0.95481   0.30589   0.19409   0.00000
H          H       0.04519   0.30589   0.80591   0.00000
H          H       0.04519   0.69411   0.19409   0.00000
H          H       0.80591   0.95481   0.69411   0.00000
H          H       0.19409   0.95481   0.30589   0.00000
H          H       0.80591   0.04519   0.30589   0.00000
H          H       0.19409   0.04519   0.69411   0.00000
H          H       0.80591   0.69411   0.04519   0.00000
H          H       0.19409   0.30589   0.04519   0.00000
H          H       0.80591   0.30589   0.95481   0.00000
H          H       0.19409   0.69411   0.95481   0.00000
H          H       0.69411   0.95481   0.19409   0.00000
H          H       0.30589   0.95481   0.80591   0.00000
H          H       0.30589   0.04519   0.19409   0.00000
H          H       0.69411   0.04519   0.80591   0.00000
H          H       0.95481   0.80591   0.30589   0.00000
H          H       0.95481   0.19409   0.69411   0.00000
H          H       0.04519   0.80591   0.69411   0.00000
H          H       0.04519   0.19409   0.30589   0.00000
H          H       0.30589   0.69411   0.54521   0.00000
H          H       0.69411   0.30589   0.54521   0.00000
H          H       0.69411   0.69411   0.45479   0.00000
H          H       0.30589   0.30589   0.45479   0.00000
H          H       0.19409   0.54521   0.80591   0.00000
H          H       0.80591   0.54521   0.19409   0.00000
H          H       0.19409   0.45479   0.19409   0.00000
H          H       0.80591   0.45479   0.80591   0.00000
H          H       0.19409   0.80591   0.45479   0.00000
H          H       0.80591   0.19409   0.45479   0.00000
H          H       0.19409   0.19409   0.54521   0.00000
H          H       0.80591   0.80591   0.54521   0.00000
H          H       0.30589   0.54521   0.30589   0.00000
H          H       0.69411   0.54521   0.69411   0.00000
H          H       0.69411   0.45479   0.30589   0.00000
H          H       0.30589   0.45479   0.69411   0.00000
H          H       0.69411   0.30589   0.45479   0.00000
H          H       0.30589   0.69411   0.45479   0.00000
H          H       0.30589   0.30589   0.54521   0.00000
H          H       0.69411   0.69411   0.54521   0.00000
H          H       0.80591   0.45479   0.19409   0.00000
H          H       0.19409   0.45479   0.80591   0.00000
H          H       0.80591   0.54521   0.80591   0.00000
H          H       0.19409   0.54521   0.19409   0.00000
H          H       0.80591   0.19409   0.54521   0.00000
H          H       0.19409   0.80591   0.54521   0.00000
H          H       0.80591   0.80591   0.45479   0.00000
H          H       0.19409   0.19409   0.45479   0.00000
H          H       0.69411   0.45479   0.69411   0.00000
H          H       0.30589   0.45479   0.30589   0.00000
H          H       0.30589   0.54521   0.69411   0.00000
H          H       0.69411   0.54521   0.30589   0.00000
H          H       0.54521   0.30589   0.69411   0.00000
H          H       0.54521   0.69411   0.30589   0.00000
H          H       0.45479   0.69411   0.69411   0.00000
H          H       0.45479   0.30589   0.30589   0.00000
H          H       0.54521   0.19409   0.19409   0.00000
H          H       0.54521   0.80591   0.80591   0.00000
H          H       0.45479   0.19409   0.80591   0.00000
H          H       0.45479   0.80591   0.19409   0.00000
H          H       0.45479   0.69411   0.30589   0.00000
H          H       0.45479   0.30589   0.69411   0.00000
H          H       0.54521   0.30589   0.30589   0.00000
H          H       0.54521   0.69411   0.69411   0.00000
H          H       0.45479   0.80591   0.80591   0.00000
H          H       0.45479   0.19409   0.19409   0.00000
H          H       0.54521   0.80591   0.19409   0.00000
H          H       0.54521   0.19409   0.80591   0.00000
