data_crystal

_cell_length_a    18.82500
_cell_length_b    6.78670
_cell_length_c    16.90100
_cell_angle_alpha 90.00000
_cell_angle_beta  90.00000
_cell_angle_gamma 90.00000

_space_group_name_Hall 'P 1'
_space_group_name_H-M_alt 'P 1'

loop_
_symmetry_equiv_pos_as_xyz
 'x,y,z'

loop_
_atom_site_label
_atom_site_type_symbol
_atom_site_fract_x
_atom_site_fract_y
_atom_site_fract_z
O          O       0.31214   0.67989   0.31863
O          O       0.18786   0.32011   0.31863
O          O       0.18786   0.17989   0.18137
O          O       0.31214   0.82011   0.18137
O          O       0.68786   0.32011   0.68137
O          O       0.81214   0.67989   0.68137
O          O       0.81214   0.82011   0.81863
O          O       0.68786   0.17989   0.81863
O          O       0.32220   0.34045   0.31844
O          O       0.17780   0.65955   0.31844
O          O       0.17780   0.84045   0.18156
O          O       0.32220   0.15955   0.18156
O          O       0.67780   0.65955   0.68156
O          O       0.82220   0.34045   0.68156
O          O       0.82220   0.15955   0.81844
O          O       0.67780   0.84045   0.81844
C          C       0.34081   0.51624   0.34250
C          C       0.15919   0.48376   0.34250
C          C       0.15919   0.01624   0.15750
C          C       0.34081   0.98376   0.15750
C          C       0.65919   0.48376   0.65750
C          C       0.84081   0.51624   0.65750
C          C       0.84081   0.98376   0.84250
C          C       0.65919   0.01624   0.84250
C          C       0.39890   0.53807   0.40140
C          C       0.10110   0.46193   0.40140
C          C       0.10110   0.03807   0.09860
C          C       0.39890   0.96193   0.09860
C          C       0.60110   0.46193   0.59860
C          C       0.89890   0.53807   0.59860
C          C       0.89890   0.96193   0.90140
C          C       0.60110   0.03807   0.90140
C          C       0.41785   0.72821   0.42705
C          C       0.08215   0.27179   0.42705
C          C       0.08215   0.22821   0.07295
C          C       0.41785   0.77179   0.07295
C          C       0.58215   0.27179   0.57295
C          C       0.91785   0.72821   0.57295
C          C       0.91785   0.77179   0.92705
C          C       0.58215   0.22821   0.92705
C          C       0.47235   0.75732   0.48204
C          C       0.02765   0.24268   0.48204
C          C       0.02765   0.25732   0.01796
C          C       0.47235   0.74268   0.01796
C          C       0.52765   0.24268   0.51796
C          C       0.97235   0.75732   0.51796
C          C       0.97235   0.74268   0.98204
C          C       0.52765   0.25732   0.98204
C          C       0.49078   0.40387   0.48742
C          C       0.00922   0.59613   0.48742
C          C       0.00922   0.90387   0.01258
C          C       0.49078   0.09613   0.01258
C          C       0.50922   0.59613   0.51258
C          C       0.99078   0.40387   0.51258
C          C       0.99078   0.09613   0.98742
C          C       0.50922   0.90387   0.98742
C          C       0.43591   0.37555   0.43211
C          C       0.06409   0.62445   0.43211
C          C       0.06409   0.87555   0.06789
C          C       0.43591   0.12445   0.06789
C          C       0.56409   0.62445   0.56789
C          C       0.93591   0.37555   0.56789
C          C       0.93591   0.12445   0.93211
C          C       0.56409   0.87555   0.93211
Al         Al      0.24507   0.75000   0.25000
Al         Al      0.25493   0.25000   0.25000
Al         Al      0.75493   0.25000   0.75000
Al         Al      0.74507   0.75000   0.75000
O          O       0.25000   0.50000   0.21478
O          O       0.25000   0.00000   0.28522
O          O       0.75000   0.50000   0.78522
O          O       0.75000   0.00000   0.71478
H          H       0.42274   0.22329   0.41311
H          H       0.07726   0.77671   0.41311
H          H       0.07726   0.72329   0.08689
H          H       0.42274   0.27671   0.08689
H          H       0.57726   0.77671   0.58689
H          H       0.92274   0.22329   0.58689
H          H       0.92274   0.27671   0.91311
H          H       0.57726   0.72329   0.91311
H          H       0.39065   0.85794   0.40466
H          H       0.10935   0.14206   0.40466
H          H       0.10935   0.35794   0.09534
H          H       0.39065   0.64206   0.09534
H          H       0.60935   0.14206   0.59534
H          H       0.89065   0.85794   0.59534
H          H       0.89065   0.64206   0.90466
H          H       0.60935   0.35794   0.90466
H          H       0.47947   0.91666   0.49478
H          H       0.02053   0.08334   0.49478
H          H       0.02053   0.41666   0.00522
H          H       0.47947   0.58334   0.00522
H          H       0.52053   0.08334   0.50522
H          H       0.97947   0.91666   0.50522
H          H       0.97947   0.58334   0.99478
H          H       0.52053   0.41666   0.99478
H          H       0.75026   0.49189   0.85274
H          H       0.25175   0.49665   0.15609
H          H       0.75114   0.99670   0.65693
H          H       0.24741   0.99857   0.34807
