data_crystal

_cell_length_a    22.69800
_cell_length_b    6.60721
_cell_length_c    19.23980
_cell_angle_alpha 90.00000
_cell_angle_beta  90.00000
_cell_angle_gamma 90.00000

_space_group_name_Hall 'P 1'
_space_group_name_H-M_alt 'P 1'

loop_
_symmetry_equiv_pos_as_xyz
 'x,y,z'

loop_
_atom_site_label
_atom_site_type_symbol
_atom_site_fract_x
_atom_site_fract_y
_atom_site_fract_z
Al         Al      0.00000   0.50000   0.00000
Al         Al      0.00000   0.00000   0.00000
Al         Al      0.50000   0.00000   0.50000
Al         Al      0.50000   0.50000   0.50000
O          O       0.00000   0.25000   0.03030
O          O       0.50000   0.75000   0.53030
O          O       0.50000   0.25000   0.46970
O          O       0.05640   0.57629   0.06057
O          O       0.94360   0.92371   0.06057
O          O       0.94360   0.07629   0.93943
O          O       0.05640   0.42371   0.93943
O          O       0.94360   0.42371   0.93943
O          O       0.05640   0.07629   0.93943
O          O       0.05640   0.92371   0.06057
O          O       0.94360   0.57629   0.06057
O          O       0.55640   0.07629   0.56057
O          O       0.44360   0.42371   0.56057
O          O       0.44360   0.57629   0.43943
O          O       0.55640   0.92371   0.43943
O          O       0.44360   0.92371   0.43943
O          O       0.55640   0.57629   0.43943
O          O       0.55640   0.42371   0.56057
O          O       0.44360   0.07629   0.56057
C          C       0.07662   0.75000   0.08146
C          C       0.92338   0.75000   0.08146
C          C       0.92338   0.25000   0.91854
C          C       0.07662   0.25000   0.91854
C          C       0.57662   0.25000   0.58146
C          C       0.42338   0.25000   0.58146
C          C       0.42338   0.75000   0.41854
C          C       0.57662   0.75000   0.41854
C          C       0.12672   0.75000   0.13180
C          C       0.87328   0.75000   0.13180
C          C       0.87328   0.25000   0.86820
C          C       0.12672   0.25000   0.86820
C          C       0.62672   0.25000   0.63180
C          C       0.37328   0.25000   0.63180
C          C       0.37328   0.75000   0.36820
C          C       0.62672   0.75000   0.36820
C          C       0.15137   0.56744   0.15550
C          C       0.84863   0.93256   0.15550
C          C       0.84863   0.06744   0.84450
C          C       0.15137   0.43256   0.84450
C          C       0.84863   0.43256   0.84450
C          C       0.15137   0.06744   0.84450
C          C       0.15137   0.93256   0.15550
C          C       0.84863   0.56744   0.15550
C          C       0.65137   0.06744   0.65550
C          C       0.34863   0.43256   0.65550
C          C       0.34863   0.56744   0.34450
C          C       0.65137   0.93256   0.34450
C          C       0.34863   0.93256   0.34450
C          C       0.65137   0.56744   0.34450
C          C       0.65137   0.43256   0.65550
C          C       0.34863   0.06744   0.65550
C          C       0.19940   0.56744   0.20173
C          C       0.80060   0.93256   0.20173
C          C       0.80060   0.06744   0.79827
C          C       0.19940   0.43256   0.79827
C          C       0.80060   0.43256   0.79827
C          C       0.19940   0.06744   0.79827
C          C       0.19940   0.93256   0.20173
C          C       0.80060   0.56744   0.20173
C          C       0.69940   0.06744   0.70173
C          C       0.30060   0.43256   0.70173
C          C       0.30060   0.56744   0.29827
C          C       0.69940   0.93256   0.29827
C          C       0.30060   0.93256   0.29827
C          C       0.69940   0.56744   0.29827
C          C       0.69940   0.43256   0.70173
C          C       0.30060   0.06744   0.70173
C          C       0.22430   0.75000   0.22548
C          C       0.77570   0.75000   0.22548
C          C       0.77570   0.25000   0.77452
C          C       0.22430   0.25000   0.77452
C          C       0.72430   0.25000   0.72548
C          C       0.27570   0.25000   0.72548
C          C       0.27570   0.75000   0.27452
C          C       0.72430   0.75000   0.27452
H          H       0.21762   0.42394   0.21943
H          H       0.78239   1.07606   0.21943
H          H       0.78239  -0.07606   0.78057
H          H       0.21762   0.57606   0.78057
H          H       0.78239   0.57606   0.78057
H          H       0.21762  -0.07606   0.78057
H          H       0.21762   1.07606   0.21943
H          H       0.78239   0.42394   0.21943
H          H       0.71762  -0.07606   0.71943
H          H       0.28239   0.57606   0.71943
H          H       0.28239   0.42394   0.28057
H          H       0.71762   1.07606   0.28057
H          H       0.28239   1.07606   0.28057
H          H       0.71762   0.42394   0.28057
H          H       0.71762   0.57606   0.71943
H          H       0.28239  -0.07606   0.71943
H          H       0.13304   0.42406   0.13784
H          H       0.86696   1.07594   0.13784
H          H       0.86696  -0.07594   0.86216
H          H       0.13304   0.57594   0.86216
H          H       0.86696   0.57594   0.86216
H          H       0.13304  -0.07594   0.86216
H          H       0.13304   1.07594   0.13784
H          H       0.86696   0.42406   0.13784
H          H       0.63304  -0.07594   0.63784
H          H       0.36696   0.57594   0.63784
H          H       0.36696   0.42406   0.36216
H          H       0.63304   1.07594   0.36216
H          H       0.36696   1.07594   0.36216
H          H       0.63304   0.42406   0.36216
H          H       0.63304   0.57594   0.63784
H          H       0.36696  -0.07594   0.63784
O          O       0.00000   0.75000  -0.03030
H          H       0.46428   0.25000   0.43990
H          H       0.53572   0.75000   0.56010
H          H      -0.03572   0.25000   0.06010
H          H      -0.03572   0.75000  -0.06010
