data_crystal
 
_cell_length_a    27.02120
_cell_length_b    27.02120
_cell_length_c    6.97050
_cell_angle_alpha 90.00000
_cell_angle_beta  90.00000
_cell_angle_gamma 120.00000
 
_symmetry_space_group_name_Hall 'P 1'
_symmetry_space_group_name_H-M  'P 1'
_symmetry_int_tables_number      1
 
loop_
_symmetry_equiv_pos_as_xyz
 'x,y,z' 
 
loop_
_atom_site_label
_atom_site_type_symbol
_atom_site_fract_x
_atom_site_fract_y
_atom_site_fract_z
_atom_site_charge
Cu         Cu      0.32081   0.20947   0.07174   0.0000000000
Cu         Cu      0.79053   0.11134   0.07174   0.0000000000
Cu         Cu      0.88867   0.67919   0.07174   0.0000000000
Cu         Cu      0.98747   0.54281   0.40507   0.0000000000
Cu         Cu      0.45719   0.44467   0.40507   0.0000000000
Cu         Cu      0.55533   0.01253   0.40507   0.0000000000
Cu         Cu      0.65414   0.87614   0.73841   0.0000000000
Cu         Cu      0.12386   0.77800   0.73841   0.0000000000
Cu         Cu      0.22200   0.34586   0.73841   0.0000000000
Cu         Cu      0.67919   0.79053   0.92826   0.0000000000
Cu         Cu      0.20947   0.88867   0.92826   0.0000000000
Cu         Cu      0.11134   0.32081   0.92826   0.0000000000
Cu         Cu      0.34586   0.12386   0.26159   0.0000000000
Cu         Cu      0.87614   0.22200   0.26159   0.0000000000
Cu         Cu      0.77800   0.65414   0.26159   0.0000000000
Cu         Cu      0.01253   0.45719   0.59493   0.0000000000
Cu         Cu      0.54281   0.55533   0.59493   0.0000000000
Cu         Cu      0.44467   0.98747   0.59493   0.0000000000
N          N       0.33525   0.24020   0.81450   0.0000000000
N          N       0.75980   0.09505   0.81450   0.0000000000
N          N       0.90495   0.66475   0.81450   0.0000000000
N          N       0.00192   0.57353   0.14783   0.0000000000
N          N       0.42647   0.42838   0.14783   0.0000000000
N          N       0.57162   0.99808   0.14783   0.0000000000
N          N       0.66858   0.90687   0.48117   0.0000000000
N          N       0.09313   0.76172   0.48117   0.0000000000
N          N       0.23828   0.33142   0.48117   0.0000000000
N          N       0.66475   0.75980   0.18550   0.0000000000
N          N       0.24020   0.90495   0.18550   0.0000000000
N          N       0.09505   0.33525   0.18550   0.0000000000
N          N       0.33142   0.09313   0.51883   0.0000000000
N          N       0.90687   0.23828   0.51883   0.0000000000
N          N       0.76172   0.66858   0.51883   0.0000000000
N          N       0.99808   0.42647   0.85217   0.0000000000
N          N       0.57353   0.57162   0.85217   0.0000000000
N          N       0.42838   0.00192   0.85217   0.0000000000
O          O       0.37203   0.17849   0.04200   0.0000000000
O          O       0.82151   0.19354   0.04200   0.0000000000
O          O       0.80646   0.62797   0.04200   0.0000000000
O          O       0.03870   0.51182   0.37533   0.0000000000
O          O       0.48818   0.52687   0.37533   0.0000000000
O          O       0.47313   0.96130   0.37533   0.0000000000
O          O       0.70536   0.84516   0.70867   0.0000000000
O          O       0.15484   0.86021   0.70867   0.0000000000
O          O       0.13979   0.29464   0.70867   0.0000000000
O          O       0.62797   0.82151   0.95800   0.0000000000
O          O       0.17849   0.80646   0.95800   0.0000000000
O          O       0.19354   0.37203   0.95800   0.0000000000
O          O       0.29464   0.15484   0.29133   0.0000000000
O          O       0.84516   0.13979   0.29133   0.0000000000
O          O       0.86021   0.70536   0.29133   0.0000000000
O          O       0.96130   0.48818   0.62467   0.0000000000
O          O       0.51182   0.47313   0.62467   0.0000000000
O          O       0.52687   0.03870   0.62467   0.0000000000
O          O       0.26646   0.23669   0.08000   0.0000000000
O          O       0.76331   0.02977   0.08000   0.0000000000
O          O       0.97023   0.73354   0.08000   0.0000000000
O          O       0.93313   0.57002   0.41333   0.0000000000
O          O       0.42998   0.36310   0.41333   0.0000000000
O          O       0.63690   0.06687   0.41333   0.0000000000
O          O       0.59979   0.90336   0.74667   0.0000000000
O          O       0.09664   0.69644   0.74667   0.0000000000
O          O       0.30356   0.40021   0.74667   0.0000000000
O          O       0.73354   0.76331   0.92000   0.0000000000
O          O       0.23669   0.97023   0.92000   0.0000000000
O          O       0.02977   0.26646   0.92000   0.0000000000
O          O       0.40021   0.09664   0.25333   0.0000000000
O          O       0.90336   0.30356   0.25333   0.0000000000
O          O       0.69644   0.59979   0.25333   0.0000000000
O          O       0.06687   0.42998   0.58667   0.0000000000
O          O       0.57002   0.63690   0.58667   0.0000000000
O          O       0.36310   0.93313   0.58667   0.0000000000
O          O       0.22904   0.27919   0.91310   0.0000000000
O          O       0.72081   0.94985   0.91310   0.0000000000
O          O       0.05015   0.77096   0.91310   0.0000000000
O          O       0.89571   0.61252   0.24643   0.0000000000
O          O       0.38748   0.28318   0.24643   0.0000000000
O          O       0.71682   0.10429   0.24643   0.0000000000
O          O       0.56237   0.94586   0.57977   0.0000000000
O          O       0.05414   0.61652   0.57977   0.0000000000
O          O       0.38348   0.43763   0.57977   0.0000000000
O          O       0.77096   0.72081   0.08690   0.0000000000
O          O       0.27919   0.05015   0.08690   0.0000000000
O          O       0.94985   0.22904   0.08690   0.0000000000
O          O       0.43763   0.05414   0.42023   0.0000000000
O          O       0.94586   0.38348   0.42023   0.0000000000
O          O       0.61652   0.56237   0.42023   0.0000000000
O          O       0.10429   0.38748   0.75357   0.0000000000
O          O       0.61252   0.71682   0.75357   0.0000000000
O          O       0.28318   0.89571   0.75357   0.0000000000
C          C       0.41110   0.22118   0.73420   0.0000000000
C          C       0.77882   0.18992   0.73420   0.0000000000
C          C       0.81008   0.58890   0.73420   0.0000000000
C          C       0.07777   0.55451   0.06753   0.0000000000
C          C       0.44549   0.52325   0.06753   0.0000000000
C          C       0.47675   0.92223   0.06753   0.0000000000
C          C       0.74443   0.88785   0.40087   0.0000000000
C          C       0.11215   0.85659   0.40087   0.0000000000
C          C       0.14341   0.25557   0.40087   0.0000000000
C          C       0.58890   0.77882   0.26580   0.0000000000
C          C       0.22118   0.81008   0.26580   0.0000000000
C          C       0.18992   0.41110   0.26580   0.0000000000
C          C       0.25557   0.11215   0.59913   0.0000000000
C          C       0.88785   0.14341   0.59913   0.0000000000
C          C       0.85659   0.74443   0.59913   0.0000000000
C          C       0.92223   0.44549   0.93247   0.0000000000
C          C       0.55451   0.47675   0.93247   0.0000000000
C          C       0.52325   0.07777   0.93247   0.0000000000
C          C       0.41206   0.19353   0.90650   0.0000000000
C          C       0.80647   0.21853   0.90650   0.0000000000
C          C       0.78147   0.58794   0.90650   0.0000000000
C          C       0.07873   0.52686   0.23983   0.0000000000
C          C       0.47314   0.55186   0.23983   0.0000000000
C          C       0.44814   0.92127   0.23983   0.0000000000
C          C       0.74539   0.86020   0.57317   0.0000000000
C          C       0.13980   0.88520   0.57317   0.0000000000
C          C       0.11480   0.25461   0.57317   0.0000000000
C          C       0.58794   0.80647   0.09350   0.0000000000
C          C       0.19353   0.78147   0.09350   0.0000000000
C          C       0.21853   0.41206   0.09350   0.0000000000
C          C       0.25461   0.13980   0.42683   0.0000000000
C          C       0.86020   0.11480   0.42683   0.0000000000
C          C       0.88520   0.74539   0.42683   0.0000000000
C          C       0.92127   0.47314   0.76017   0.0000000000
C          C       0.52686   0.44814   0.76017   0.0000000000
C          C       0.55186   0.07873   0.76017   0.0000000000
C          C       0.45673   0.18167   0.92900   0.0000000000
C          C       0.81833   0.27506   0.92900   0.0000000000
C          C       0.72494   0.54327   0.92900   0.0000000000
C          C       0.12340   0.51500   0.26233   0.0000000000
C          C       0.48500   0.60839   0.26233   0.0000000000
C          C       0.39161   0.87660   0.26233   0.0000000000
C          C       0.79006   0.84834   0.59567   0.0000000000
C          C       0.15166   0.94173   0.59567   0.0000000000
C          C       0.05827   0.20994   0.59567   0.0000000000
C          C       0.54327   0.81833   0.07100   0.0000000000
C          C       0.18167   0.72494   0.07100   0.0000000000
C          C       0.27506   0.45673   0.07100   0.0000000000
C          C       0.20994   0.15166   0.40433   0.0000000000
C          C       0.84834   0.05827   0.40433   0.0000000000
C          C       0.94173   0.79006   0.40433   0.0000000000
C          C       0.87660   0.48500   0.73767   0.0000000000
C          C       0.51500   0.39161   0.73767   0.0000000000
C          C       0.60839   0.12340   0.73767   0.0000000000
H          H       0.45970   0.16540   0.04290   0.0000000000
H          H       0.83460   0.29430   0.04290   0.0000000000
H          H       0.70570   0.54030   0.04290   0.0000000000
H          H       0.12637   0.49873   0.37623   0.0000000000
H          H       0.50127   0.62763   0.37623   0.0000000000
H          H       0.37237   0.87363   0.37623   0.0000000000
H          H       0.79303   0.83207   0.70957   0.0000000000
H          H       0.16793   0.96097   0.70957   0.0000000000
H          H       0.03903   0.20697   0.70957   0.0000000000
H          H       0.54030   0.83460   0.95710   0.0000000000
H          H       0.16540   0.70570   0.95710   0.0000000000
H          H       0.29430   0.45970   0.95710   0.0000000000
H          H       0.20697   0.16793   0.29043   0.0000000000
H          H       0.83207   0.03903   0.29043   0.0000000000
H          H       0.96097   0.79303   0.29043   0.0000000000
H          H       0.87363   0.50127   0.62377   0.0000000000
H          H       0.49873   0.37237   0.62377   0.0000000000
H          H       0.62763   0.12637   0.62377   0.0000000000
C          C       0.49632   0.19370   0.78550   0.0000000000
C          C       0.80630   0.30262   0.78550   0.0000000000
C          C       0.69738   0.50368   0.78550   0.0000000000
C          C       0.16299   0.52703   0.11883   0.0000000000
C          C       0.47297   0.63595   0.11883   0.0000000000
C          C       0.36405   0.83701   0.11883   0.0000000000
C          C       0.82965   0.86037   0.45217   0.0000000000
C          C       0.13963   0.96929   0.45217   0.0000000000
C          C       0.03071   0.17035   0.45217   0.0000000000
C          C       0.50368   0.80630   0.21450   0.0000000000
C          C       0.19370   0.69738   0.21450   0.0000000000
C          C       0.30262   0.49632   0.21450   0.0000000000
C          C       0.17035   0.13963   0.54783   0.0000000000
C          C       0.86037   0.03071   0.54783   0.0000000000
C          C       0.96929   0.82965   0.54783   0.0000000000
C          C       0.83701   0.47297   0.88117   0.0000000000
C          C       0.52703   0.36405   0.88117   0.0000000000
C          C       0.63595   0.16299   0.88117   0.0000000000
H          H       0.52540   0.18540   0.80440   0.0000000000
H          H       0.81460   0.34000   0.80440   0.0000000000
H          H       0.66000   0.47460   0.80440   0.0000000000
H          H       0.19207   0.51873   0.13773   0.0000000000
H          H       0.48127   0.67333   0.13773   0.0000000000
H          H       0.32667   0.80793   0.13773   0.0000000000
H          H       0.85873   0.85207   0.47107   0.0000000000
H          H       0.14793   0.00667   0.47107   0.0000000000
H          H       0.99333   0.14127   0.47107   0.0000000000
H          H       0.47460   0.81460   0.19560   0.0000000000
H          H       0.18540   0.66000   0.19560   0.0000000000
H          H       0.34000   0.52540   0.19560   0.0000000000
H          H       0.14127   0.14793   0.52893   0.0000000000
H          H       0.85207   0.99333   0.52893   0.0000000000
H          H       0.00667   0.85873   0.52893   0.0000000000
H          H       0.80793   0.48127   0.86227   0.0000000000
H          H       0.51873   0.32667   0.86227   0.0000000000
H          H       0.67333   0.19207   0.86227   0.0000000000
C          C       0.49348   0.21808   0.61320   0.0000000000
C          C       0.78192   0.27540   0.61320   0.0000000000
C          C       0.72460   0.50652   0.61320   0.0000000000
C          C       0.16015   0.55141   0.94653   0.0000000000
C          C       0.44859   0.60873   0.94653   0.0000000000
C          C       0.39127   0.83985   0.94653   0.0000000000
C          C       0.82681   0.88475   0.27987   0.0000000000
C          C       0.11525   0.94207   0.27987   0.0000000000
C          C       0.05793   0.17319   0.27987   0.0000000000
C          C       0.50652   0.78192   0.38680   0.0000000000
C          C       0.21808   0.72460   0.38680   0.0000000000
C          C       0.27540   0.49348   0.38680   0.0000000000
C          C       0.17319   0.11525   0.72013   0.0000000000
C          C       0.88475   0.05793   0.72013   0.0000000000
C          C       0.94207   0.82681   0.72013   0.0000000000
C          C       0.83985   0.44859   0.05347   0.0000000000
C          C       0.55141   0.39127   0.05347   0.0000000000
C          C       0.60873   0.16015   0.05347   0.0000000000
H          H       0.51960   0.22480   0.51560   0.0000000000
H          H       0.77520   0.29480   0.51560   0.0000000000
H          H       0.70520   0.48040   0.51560   0.0000000000
H          H       0.18627   0.55813   0.84893   0.0000000000
H          H       0.44187   0.62813   0.84893   0.0000000000
H          H       0.37187   0.81373   0.84893   0.0000000000
H          H       0.85293   0.89147   0.18227   0.0000000000
H          H       0.10853   0.96147   0.18227   0.0000000000
H          H       0.03853   0.14707   0.18227   0.0000000000
H          H       0.48040   0.77520   0.48440   0.0000000000
H          H       0.22480   0.70520   0.48440   0.0000000000
H          H       0.29480   0.51960   0.48440   0.0000000000
H          H       0.14707   0.10853   0.81773   0.0000000000
H          H       0.89147   0.03853   0.81773   0.0000000000
H          H       0.96147   0.85293   0.81773   0.0000000000
H          H       0.81373   0.44187   0.15107   0.0000000000
H          H       0.55813   0.37187   0.15107   0.0000000000
H          H       0.62813   0.18627   0.15107   0.0000000000
C          C       0.45171   0.23190   0.58960   0.0000000000
C          C       0.76810   0.21981   0.58960   0.0000000000
C          C       0.78019   0.54829   0.58960   0.0000000000
C          C       0.11838   0.56523   0.92293   0.0000000000
C          C       0.43477   0.55314   0.92293   0.0000000000
C          C       0.44686   0.88162   0.92293   0.0000000000
C          C       0.78504   0.89857   0.25627   0.0000000000
C          C       0.10143   0.88648   0.25627   0.0000000000
C          C       0.11352   0.21496   0.25627   0.0000000000
C          C       0.54829   0.76810   0.41040   0.0000000000
C          C       0.23190   0.78019   0.41040   0.0000000000
C          C       0.21981   0.45171   0.41040   0.0000000000
C          C       0.21496   0.10143   0.74373   0.0000000000
C          C       0.89857   0.11352   0.74373   0.0000000000
C          C       0.88648   0.78504   0.74373   0.0000000000
C          C       0.88162   0.43477   0.07707   0.0000000000
C          C       0.56523   0.44686   0.07707   0.0000000000
C          C       0.55314   0.11838   0.07707   0.0000000000
H          H       0.45000   0.24880   0.47550   0.0000000000
H          H       0.75120   0.20120   0.47550   0.0000000000
H          H       0.79880   0.55000   0.47550   0.0000000000
H          H       0.11667   0.58213   0.80883   0.0000000000
H          H       0.41787   0.53453   0.80883   0.0000000000
H          H       0.46547   0.88333   0.80883   0.0000000000
H          H       0.78333   0.91547   0.14217   0.0000000000
H          H       0.08453   0.86787   0.14217   0.0000000000
H          H       0.13213   0.21667   0.14217   0.0000000000
H          H       0.55000   0.75120   0.52450   0.0000000000
H          H       0.24880   0.79880   0.52450   0.0000000000
H          H       0.20120   0.45000   0.52450   0.0000000000
H          H       0.21667   0.08453   0.85783   0.0000000000
H          H       0.91547   0.13213   0.85783   0.0000000000
H          H       0.86787   0.78333   0.85783   0.0000000000
H          H       0.88333   0.41787   0.19117   0.0000000000
H          H       0.58213   0.46547   0.19117   0.0000000000
H          H       0.53453   0.11667   0.19117   0.0000000000
C          C       0.37135   0.24098   0.69590   0.0000000000
C          C       0.75902   0.13037   0.69590   0.0000000000
C          C       0.86963   0.62865   0.69590   0.0000000000
C          C       0.03802   0.57431   0.02923   0.0000000000
C          C       0.42569   0.46370   0.02923   0.0000000000
C          C       0.53630   0.96198   0.02923   0.0000000000
C          C       0.70468   0.90765   0.36257   0.0000000000
C          C       0.09235   0.79704   0.36257   0.0000000000
C          C       0.20296   0.29532   0.36257   0.0000000000
C          C       0.62865   0.75902   0.30410   0.0000000000
C          C       0.24098   0.86963   0.30410   0.0000000000
C          C       0.13037   0.37135   0.30410   0.0000000000
C          C       0.29532   0.09235   0.63743   0.0000000000
C          C       0.90765   0.20296   0.63743   0.0000000000
C          C       0.79704   0.70468   0.63743   0.0000000000
C          C       0.96198   0.42569   0.97077   0.0000000000
C          C       0.57431   0.53630   0.97077   0.0000000000
C          C       0.46370   0.03802   0.97077   0.0000000000
H          H       0.37220   0.25550   0.57420   0.0000000000
H          H       0.74450   0.11670   0.57420   0.0000000000
H          H       0.88330   0.62780   0.57420   0.0000000000
H          H       0.03887   0.58883   0.90753   0.0000000000
H          H       0.41117   0.45003   0.90753   0.0000000000
H          H       0.54997   0.96113   0.90753   0.0000000000
H          H       0.70553   0.92217   0.24087   0.0000000000
H          H       0.07783   0.78337   0.24087   0.0000000000
H          H       0.21663   0.29447   0.24087   0.0000000000
H          H       0.62780   0.74450   0.42580   0.0000000000
H          H       0.25550   0.88330   0.42580   0.0000000000
H          H       0.11670   0.37220   0.42580   0.0000000000
H          H       0.29447   0.07783   0.75913   0.0000000000
H          H       0.92217   0.21663   0.75913   0.0000000000
H          H       0.78337   0.70553   0.75913   0.0000000000
H          H       0.96113   0.41117   0.09247   0.0000000000
H          H       0.58883   0.54997   0.09247   0.0000000000
H          H       0.45003   0.03887   0.09247   0.0000000000
C          C       0.29851   0.26304   0.75990   0.0000000000
C          C       0.73696   0.03547   0.75990   0.0000000000
C          C       0.96453   0.70149   0.75990   0.0000000000
C          C       0.96518   0.59637   0.09323   0.0000000000
C          C       0.40363   0.36880   0.09323   0.0000000000
C          C       0.63120   0.03482   0.09323   0.0000000000
C          C       0.63184   0.92971   0.42657   0.0000000000
C          C       0.07029   0.70214   0.42657   0.0000000000
C          C       0.29786   0.36816   0.42657   0.0000000000
C          C       0.70149   0.73696   0.24010   0.0000000000
C          C       0.26304   0.96453   0.24010   0.0000000000
C          C       0.03547   0.29851   0.24010   0.0000000000
C          C       0.36816   0.07029   0.57343   0.0000000000
C          C       0.92971   0.29786   0.57343   0.0000000000
C          C       0.70214   0.63184   0.57343   0.0000000000
C          C       0.03482   0.40363   0.90677   0.0000000000
C          C       0.59637   0.63120   0.90677   0.0000000000
C          C       0.36880   0.96518   0.90677   0.0000000000
H          H       0.27450   0.24140   0.65280   0.0000000000
H          H       0.75860   0.03310   0.65280   0.0000000000
H          H       0.96690   0.72550   0.65280   0.0000000000
H          H       0.94117   0.57473   0.98613   0.0000000000
H          H       0.42527   0.36643   0.98613   0.0000000000
H          H       0.63357   0.05883   0.98613   0.0000000000
H          H       0.60783   0.90807   0.31947   0.0000000000
H          H       0.09193   0.69977   0.31947   0.0000000000
H          H       0.30023   0.39217   0.31947   0.0000000000
H          H       0.72550   0.75860   0.34720   0.0000000000
H          H       0.24140   0.96690   0.34720   0.0000000000
H          H       0.03310   0.27450   0.34720   0.0000000000
H          H       0.39217   0.09193   0.68053   0.0000000000
H          H       0.90807   0.30023   0.68053   0.0000000000
H          H       0.69977   0.60783   0.68053   0.0000000000
H          H       0.05883   0.42527   0.01387   0.0000000000
H          H       0.57473   0.63357   0.01387   0.0000000000
H          H       0.36643   0.94117   0.01387   0.0000000000
H          H       0.32180   0.30250   0.71960   0.0000000000
H          H       0.69750   0.01930   0.71960   0.0000000000
H          H       0.98070   0.67820   0.71960   0.0000000000
H          H       0.98847   0.63583   0.05293   0.0000000000
H          H       0.36417   0.35263   0.05293   0.0000000000
H          H       0.64737   0.01153   0.05293   0.0000000000
H          H       0.65513   0.96917   0.38627   0.0000000000
H          H       0.03083   0.68597   0.38627   0.0000000000
H          H       0.31403   0.34487   0.38627   0.0000000000
H          H       0.67820   0.69750   0.28040   0.0000000000
H          H       0.30250   0.98070   0.28040   0.0000000000
H          H       0.01930   0.32180   0.28040   0.0000000000
H          H       0.34487   0.03083   0.61373   0.0000000000
H          H       0.96917   0.31403   0.61373   0.0000000000
H          H       0.68597   0.65513   0.61373   0.0000000000
H          H       0.01153   0.36417   0.94707   0.0000000000
H          H       0.63583   0.64737   0.94707   0.0000000000
H          H       0.35263   0.98847   0.94707   0.0000000000
C          C       0.26138   0.25966   0.92790   0.0000000000
C          C       0.74034   0.00172   0.92790   0.0000000000
C          C       0.99828   0.73862   0.92790   0.0000000000
C          C       0.92805   0.59299   0.26123   0.0000000000
C          C       0.40701   0.33505   0.26123   0.0000000000
C          C       0.66495   0.07195   0.26123   0.0000000000
C          C       0.59471   0.92633   0.59457   0.0000000000
C          C       0.07367   0.66839   0.59457   0.0000000000
C          C       0.33161   0.40529   0.59457   0.0000000000
C          C       0.73862   0.74034   0.07210   0.0000000000
C          C       0.25966   0.99828   0.07210   0.0000000000
C          C       0.00172   0.26138   0.07210   0.0000000000
C          C       0.40529   0.07367   0.40543   0.0000000000
C          C       0.92633   0.33161   0.40543   0.0000000000
C          C       0.66839   0.59471   0.40543   0.0000000000
C          C       0.07195   0.40701   0.73877   0.0000000000
C          C       0.59299   0.66495   0.73877   0.0000000000
C          C       0.33505   0.92805   0.73877   0.0000000000
