
#######################################################################
#
#                 Cambridge Crystallographic Data Centre
#                                CCDC 
#
#######################################################################
#
# If this CIF has been generated from an entry in the Cambridge 
# Structural Database, then it will include bibliographic, chemical, 
# crystal, experimental, refinement or atomic coordinate data resulting 
# from the CCDC's data processing and validation procedures.
#
#######################################################################

data_S1
_symmetry_cell_setting           cubic
_symmetry_space_group_name_H-M   'I m -3 m'
_symmetry_Int_Tables_number      229
_space_group_name_Hall           '-I 4 2 3'
loop_
_symmetry_equiv_pos_site_id
_symmetry_equiv_pos_as_xyz
1 x,y,z
2 -x,-y,z
3 -x,y,-z
4 x,-y,-z
5 z,x,y
6 z,-x,-y
7 -z,-x,y
8 -z,x,-y
9 y,z,x
10 -y,z,-x
11 y,-z,-x
12 -y,-z,x
13 y,x,-z
14 -y,-x,-z
15 y,-x,z
16 -y,x,z
17 x,z,-y
18 -x,z,y
19 -x,-z,-y
20 x,-z,y
21 z,y,-x
22 z,-y,x
23 -z,y,x
24 -z,-y,-x
25 1/2+x,1/2+y,1/2+z
26 1/2-x,1/2-y,1/2+z
27 1/2-x,1/2+y,1/2-z
28 1/2+x,1/2-y,1/2-z
29 1/2+z,1/2+x,1/2+y
30 1/2+z,1/2-x,1/2-y
31 1/2-z,1/2-x,1/2+y
32 1/2-z,1/2+x,1/2-y
33 1/2+y,1/2+z,1/2+x
34 1/2-y,1/2+z,1/2-x
35 1/2+y,1/2-z,1/2-x
36 1/2-y,1/2-z,1/2+x
37 1/2+y,1/2+x,1/2-z
38 1/2-y,1/2-x,1/2-z
39 1/2+y,1/2-x,1/2+z
40 1/2-y,1/2+x,1/2+z
41 1/2+x,1/2+z,1/2-y
42 1/2-x,1/2+z,1/2+y
43 1/2-x,1/2-z,1/2-y
44 1/2+x,1/2-z,1/2+y
45 1/2+z,1/2+y,1/2-x
46 1/2+z,1/2-y,1/2+x
47 1/2-z,1/2+y,1/2+x
48 1/2-z,1/2-y,1/2-x
49 -x,-y,-z
50 x,y,-z
51 x,-y,z
52 -x,y,z
53 -z,-x,-y
54 -z,x,y
55 z,x,-y
56 z,-x,y
57 -y,-z,-x
58 y,-z,x
59 -y,z,x
60 y,z,-x
61 -y,-x,z
62 y,x,z
63 -y,x,-z
64 y,-x,-z
65 -x,-z,y
66 x,-z,-y
67 x,z,y
68 -x,z,-y
69 -z,-y,x
70 -z,y,-x
71 z,-y,-x
72 z,y,x
73 1/2-x,1/2-y,1/2-z
74 1/2+x,1/2+y,1/2-z
75 1/2+x,1/2-y,1/2+z
76 1/2-x,1/2+y,1/2+z
77 1/2-z,1/2-x,1/2-y
78 1/2-z,1/2+x,1/2+y
79 1/2+z,1/2+x,1/2-y
80 1/2+z,1/2-x,1/2+y
81 1/2-y,1/2-z,1/2-x
82 1/2+y,1/2-z,1/2+x
83 1/2-y,1/2+z,1/2+x
84 1/2+y,1/2+z,1/2-x
85 1/2-y,1/2-x,1/2+z
86 1/2+y,1/2+x,1/2+z
87 1/2-y,1/2+x,1/2-z
88 1/2+y,1/2-x,1/2-z
89 1/2-x,1/2-z,1/2+y
90 1/2+x,1/2-z,1/2-y
91 1/2+x,1/2+z,1/2+y
92 1/2-x,1/2+z,1/2-y
93 1/2-z,1/2-y,1/2+x
94 1/2-z,1/2+y,1/2-x
95 1/2+z,1/2-y,1/2-x
96 1/2+z,1/2+y,1/2+x
_cell_length_a                   34.600(18)
_cell_length_b                   34.600(18)
_cell_length_c                   34.600(18)
_cell_angle_alpha                90.00
_cell_angle_beta                 90.00
_cell_angle_gamma                90.00
_cell_volume                     41421.7
loop_
_atom_site_label
_atom_site_type_symbol
_atom_site_fract_x
_atom_site_fract_y
_atom_site_fract_z
Cu1 Cu 0.288331(14) 0.5000 0.0000
O1 O 0.28272(5) 0.46009(4) -0.03986(4)
O2 O 0.34953(15) 0.5000 0.0000
C1 C 0.2500 0.44873(5) -0.05127(5)
C2 C 0.2500 0.41803(5) -0.08197(5)
C8 C 0.2500 0.27867(5) -0.22133(5)
C7 C 0.2500 0.30781(6) -0.19219(6)
C5 C 0.2500 0.36127(6) -0.13873(6)
C3 C 0.28473(9) 0.40247(8) -0.09491(8)
H3A H 0.3081 0.4113 -0.0850
C6 C 0.2500 0.33201(6) -0.16799(6)
C4 C 0.28420(9) 0.37371(10) -0.12259(9)
H4A H 0.3073 0.3625 -0.1305
O1 O 0.21728(5) 0.46014(4) -0.03991(4)
C3 C 0.21527(9) 0.40509(8) -0.09753(8)
H3A H 0.1919 0.4150 -0.0887
C4 C 0.21580(9) 0.37741(9) -0.12629(10)
H4A H 0.1927 0.3695 -0.1375
O1 O 0.46009(4) 0.28272(5) -0.03986(4)
C1 C 0.44873(5) 0.2500 -0.05127(5)
C2 C 0.41803(5) 0.2500 -0.08197(5)
C8 C 0.27867(5) 0.2500 -0.22133(5)
C7 C 0.30781(6) 0.2500 -0.19219(6)
C5 C 0.36127(6) 0.2500 -0.13873(6)
C3 C 0.40247(8) 0.28473(9) -0.09491(8)
H3A H 0.4113 0.3081 -0.0850
C6 C 0.33201(6) 0.2500 -0.16799(6)
C4 C 0.37371(10) 0.28420(9) -0.12259(9)
H4A H 0.3625 0.3073 -0.1305
O1 O 0.03986(4) 0.46009(4) -0.28272(5)
C1 C 0.05127(5) 0.44873(5) -0.2500
C2 C 0.08197(5) 0.41803(5) -0.2500
C8 C 0.22133(5) 0.27867(5) -0.2500
C7 C 0.19219(6) 0.30781(6) -0.2500
C5 C 0.13873(6) 0.36127(6) -0.2500
C3 C 0.09491(8) 0.40247(8) -0.28473(9)
H3A H 0.0850 0.4113 -0.3081
C6 C 0.16799(6) 0.33201(6) -0.2500
C4 C 0.12259(9) 0.37371(10) -0.28420(9)
H4A H 0.1305 0.3625 -0.3073
O1 O 0.46014(4) 0.21728(5) -0.03991(4)
C3 C 0.40509(8) 0.21527(9) -0.09753(8)
H3A H 0.4150 0.1919 -0.0887
C4 C 0.37741(9) 0.21580(9) -0.12629(10)
H4A H 0.3695 0.1927 -0.1375
O1 O 0.03991(4) 0.46014(4) -0.21728(5)
C3 C 0.09753(8) 0.40509(8) -0.21527(9)
H3A H 0.0887 0.4150 -0.1919
C4 C 0.12629(10) 0.37741(9) -0.21580(9)
H4A H 0.1375 0.3695 -0.1927
O1 O 0.03986(4) 0.28272(5) -0.46009(4)
C1 C 0.05127(5) 0.2500 -0.44873(5)
C2 C 0.08197(5) 0.2500 -0.41803(5)
C8 C 0.22133(5) 0.2500 -0.27867(5)
C7 C 0.19219(6) 0.2500 -0.30781(6)
C5 C 0.13873(6) 0.2500 -0.36127(6)
C3 C 0.09491(8) 0.28473(9) -0.40247(8)
H3A H 0.0850 0.3081 -0.4113
C6 C 0.16799(6) 0.2500 -0.33201(6)
C4 C 0.12259(9) 0.28420(9) -0.37371(10)
H4A H 0.1305 0.3073 -0.3625
O1 O 0.46009(4) 0.03986(4) -0.28272(5)
C1 C 0.44873(5) 0.05127(5) -0.2500
C2 C 0.41803(5) 0.08197(5) -0.2500
C8 C 0.27867(5) 0.22133(5) -0.2500
C7 C 0.30781(6) 0.19219(6) -0.2500
C5 C 0.36127(6) 0.13873(6) -0.2500
C3 C 0.40247(8) 0.09491(8) -0.28473(9)
H3A H 0.4113 0.0850 -0.3081
C6 C 0.33201(6) 0.16799(6) -0.2500
C4 C 0.37371(10) 0.12259(9) -0.28420(9)
H4A H 0.3625 0.1305 -0.3073
O1 O 0.03991(4) 0.21728(5) -0.46014(4)
C3 C 0.09753(8) 0.21527(9) -0.40509(8)
H3A H 0.0887 0.1919 -0.4150
C4 C 0.12629(10) 0.21580(9) -0.37741(9)
H4A H 0.1375 0.1927 -0.3695
O1 O 0.46014(4) 0.03991(4) -0.21728(5)
C3 C 0.40509(8) 0.09753(8) -0.21527(9)
H3A H 0.4150 0.0887 -0.1919
C4 C 0.37741(9) 0.12629(10) -0.21580(9)
H4A H 0.3695 0.1375 -0.1927
O1 O 0.28272(5) 0.03986(4) -0.46009(4)
C1 C 0.2500 0.05127(5) -0.44873(5)
C2 C 0.2500 0.08197(5) -0.41803(5)
C8 C 0.2500 0.22133(5) -0.27867(5)
C7 C 0.2500 0.19219(6) -0.30781(6)
C5 C 0.2500 0.13873(6) -0.36127(6)
C3 C 0.28473(9) 0.09491(8) -0.40247(8)
H3A H 0.3081 0.0850 -0.4113
C6 C 0.2500 0.16799(6) -0.33201(6)
C4 C 0.28420(9) 0.12259(9) -0.37371(10)
H4A H 0.3073 0.1305 -0.3625
O1 O 0.21728(5) 0.03991(4) -0.46014(4)
C3 C 0.21527(9) 0.09753(8) -0.40509(8)
H3A H 0.1919 0.0887 -0.4150
C4 C 0.21580(9) 0.12629(10) -0.37741(9)
H4A H 0.1927 0.1375 -0.3695
Cu1 Cu 0.5000 0.288331(14) 0.0000
O2 O 0.5000 0.34953(15) 0.0000
Cu1 Cu 0.211669(14) 0.5000 0.0000
O2 O 0.15047(15) 0.5000 0.0000
Cu1 Cu 0.0000 0.288331(14) -0.5000
Cu1 Cu 0.5000 0.0000 -0.288331(14)
Cu1 Cu 0.288331(14) 0.0000 -0.5000
Cu1 Cu 0.0000 0.5000 -0.288331(14)
Cu1 Cu 0.211669(14) 0.0000 -0.5000
Cu1 Cu 0.5000 0.211669(14) 0.0000
Cu1 Cu 0.0000 0.5000 -0.211669(14)
Cu1 Cu 0.0000 0.211669(14) -0.5000
Cu1 Cu 0.5000 0.0000 -0.211669(14)
O1 O 0.28272(5) 0.53991(4) 0.03986(4)
O1 O 0.46009(4) 0.28272(5) 0.03986(4)
O1 O 0.53991(4) 0.28272(5) -0.03986(4)
O1 O 0.21728(5) 0.53986(4) 0.03991(4)
O1 O 0.28272(5) 0.46009(4) 0.03986(4)
O1 O 0.28272(5) 0.53991(4) -0.03986(4)
O1 O 0.53991(4) 0.28272(5) 0.03986(4)
O1 O 0.21728(5) 0.53986(4) -0.03991(4)
O1 O 0.21728(5) 0.46014(4) 0.03991(4)

#END
