data_crystal

_cell_length_a    10.37800
_cell_length_b    16.09541
_cell_length_c    16.09541
_cell_angle_alpha 84.03417
_cell_angle_beta  71.19248
_cell_angle_gamma 71.19248

_space_group_name_Hall 'P 1'
_space_group_name_H-M_alt 'P 1'

loop_
_symmetry_equiv_pos_as_xyz
 'x,y,z'

loop_
_atom_site_label
_atom_site_type_symbol
_atom_site_fract_x
_atom_site_fract_y
_atom_site_fract_z
Al         Al      0.89520   0.07040   0.43560
Al         Al      0.08080   0.06440   0.57040
Al         Al      0.71560   0.93560   0.42960
Al         Al      0.40120   0.92960   0.56440
Al         Al      0.88250   0.42730   0.06390
Al         Al      0.69640   0.43610   0.92730
Al         Al      0.05980   0.56390   0.07270
Al         Al      0.37370   0.57270   0.93610
C          C       0.07580   0.40880   0.18160
C          C       0.00740   0.31840   0.90880
C          C       0.23460   0.68160   0.09120
C          C       0.66620   0.59120   0.81840
C          C       0.69130   0.32330   0.09010
C          C       0.53140   0.40990   0.82330
C          C       0.76460   0.59010   0.17670
C          C       0.10470   0.67670   0.90990
C          C       0.71670   0.09080   0.31500
C          C       0.78170   0.18500   0.59080
C          C       0.55750   0.81500   0.40920
C          C       0.12250   0.90920   0.68500
C          C       0.06830   0.17790   0.41190
C          C       0.23020   0.08810   0.67790
C          C       0.99620   0.91190   0.32210
C          C       0.65810   0.82210   0.58810
C          C       0.14280   0.34894   0.24586
C          C       0.13866   0.25414   0.84894
C          C       0.24174   0.74586   0.15106
C          C       0.73760   0.65106   0.75414
C          C       0.08320   0.28490   0.28110
C          C       0.11430   0.21890   0.78490
C          C       0.11810   0.78110   0.21510
C          C       0.64920   0.71510   0.71890
C          C       0.14060   0.23650   0.34930
C          C       0.23990   0.15070   0.73650
C          C       0.12710   0.84930   0.26350
C          C       0.72640   0.76350   0.65070
C          C       0.23970   0.25030   0.38650
C          C       0.37620   0.11350   0.75030
C          C       0.24000   0.88650   0.24970
C          C       0.87650   0.74970   0.61350
C          C       0.29610   0.31300   0.34120
C          C       0.38730   0.15880   0.81300
C          C       0.35910   0.84120   0.18700
C          C       0.95030   0.68700   0.65880
C          C       0.24900   0.36210   0.27210
C          C       0.27110   0.22790   0.86210
C          C       0.36110   0.77210   0.13790
C          C       0.88320   0.63790   0.72790
C          C       0.65370   0.12870   0.24170
C          C       0.64540   0.25830   0.62870
C          C       0.53240   0.74170   0.37130
C          C       0.02410   0.87130   0.75830
C          C       0.70170   0.20020   0.21440
C          C       0.66610   0.28560   0.70020
C          C       0.65190   0.71440   0.29980
C          C       0.11630   0.79980   0.78560
C          C       0.65170   0.25010   0.14610
C          C       0.54780   0.35390   0.75010
C          C       0.65180   0.64610   0.24990
C          C       0.04790   0.74990   0.85390
C          C       0.55720   0.22050   0.11530
C          C       0.42250   0.38470   0.72050
C          C       0.52770   0.61530   0.27950
C          C       0.89300   0.77950   0.88470
C          C       0.49830   0.15490   0.16070
C          C       0.40900   0.33930   0.65490
C          C       0.40320   0.66070   0.34510
C          C       0.81390   0.84510   0.83930
C          C       0.56360   0.09390   0.21570
C          C       0.52930   0.28430   0.59390
C          C       0.40750   0.71570   0.40610
C          C       0.87320   0.90610   0.78430
H          H       0.39973   0.15133   0.15302
H          H       0.30275   0.34698   0.65133
H          H       0.30106   0.65302   0.34867
H          H       0.70408   0.84867   0.84698
H          H       0.00168   0.27121   0.26072
H          H       0.01240   0.23928   0.77121
H          H       0.02289   0.76072   0.22879
H          H       0.53362   0.72879   0.73928
H          H       0.53123   0.24933   0.05619
H          H       0.33742   0.44381   0.74933
H          H       0.53055   0.55619   0.25067
H          H       0.83675   0.75067   0.94381
H          H       0.26640   0.21539   0.44334
H          H       0.45975   0.05665   0.71539
H          H       0.23179   0.94334   0.28461
H          H       0.92514   0.78461   0.55666
H          H       0.54737   0.03026   0.23507
H          H       0.53244   0.26493   0.53026
H          H       0.32762   0.73507   0.46974
H          H       0.81270   0.96974   0.76493
H          H       0.77211   0.21739   0.24256
H          H       0.76467   0.25744   0.71739
H          H       0.73950   0.74256   0.28261
H          H       0.23206   0.78261   0.75744
H          H       0.38080   0.32616   0.35854
H          H       0.48934   0.14146   0.82616
H          H       0.45696   0.85854   0.17384
H          H       0.06550   0.67384   0.64146
H          H       0.29828   0.41175   0.23873
H          H       0.28701   0.26127   0.91175
H          H       0.46003   0.73873   0.08825
H          H       0.94876   0.58825   0.76127
O          O       0.01710   0.38460   0.13300
O          O       0.90010   0.36700   0.88460
O          O       0.15170   0.63300   0.11540
O          O       0.53470   0.61540   0.86700
O          O       0.77300   0.34500   0.12440
O          O       0.64740   0.37560   0.84500
O          O       0.86800   0.62440   0.15500
O          O       0.24240   0.65500   0.87560
O          O       0.77770   0.12270   0.35570
O          O       0.88340   0.14430   0.62270
O          O       0.65040   0.85570   0.37730
O          O       0.25610   0.87730   0.64430
O          O       0.01400   0.14330   0.36750
O          O       0.13150   0.13250   0.64330
O          O       0.90730   0.86750   0.35670
O          O       0.52480   0.85670   0.63250
O          O       0.68690   0.02280   0.33780
O          O       0.77470   0.16220   0.52280
O          O       0.45970   0.83780   0.47720
O          O       0.04750   0.97720   0.66220
O          O       0.78090   0.00480   0.49580
O          O       0.02670   0.00420   0.50480
O          O       0.53570   0.99580   0.49520
O          O       0.28150   0.99520   0.50420
O          O       0.08670   0.14620   0.48440
O          O       0.32110   0.01560   0.64620
O          O       0.98290   0.98440   0.35380
O          O       0.71730   0.85380   0.51560
O          O       0.67800   0.34490   0.01630
O          O       0.44430   0.48370   0.84490
O          O       0.77290   0.51630   0.15510
O          O       0.03920   0.65510   0.98370
O          O       0.13520   0.46440   0.14680
O          O       0.03200   0.35320   0.96440
O          O       0.34960   0.64680   0.03560
O          O       0.74640   0.53560   0.85320
O          O       0.78950   0.47460   0.98480
O          O       0.52430   0.51520   0.97460
O          O       0.01410   0.48480   0.02540
O          O       0.24890   0.52540   0.01520
