data_crystal

_cell_length_a    17.25280
_cell_length_b    17.25280
_cell_length_c    23.86430
_cell_angle_alpha 90.00000
_cell_angle_beta  90.00000
_cell_angle_gamma 90.00000

_space_group_name_Hall 'P 1'
_space_group_name_H-M_alt 'P 1'

loop_
_symmetry_equiv_pos_as_xyz
 'x,y,z'

loop_
_atom_site_label
_atom_site_type_symbol
_atom_site_fract_x
_atom_site_fract_y
_atom_site_fract_z
Al         Al      0.82233   0.82233   0.50000
Al         Al      0.17767   0.17767   0.50000
Al         Al      0.17767   0.82233   0.50000
Al         Al      0.82233   0.17767   0.50000
Al         Al      0.32233   0.32233   0.00000
Al         Al      0.67767   0.67767   0.00000
Al         Al      0.67767   0.32233   0.00000
Al         Al      0.32233   0.67767   0.00000
Al         Al      0.74722   0.00000   0.50000
Al         Al      0.25278   0.00000   0.50000
Al         Al      0.00000   0.74722   0.50000
Al         Al      0.00000   0.25278   0.50000
Al         Al      0.24722   0.50000   0.00000
Al         Al      0.75278   0.50000   0.00000
Al         Al      0.50000   0.24722   0.00000
Al         Al      0.50000   0.75278   0.00000
O          O       0.79820   0.84560   0.57659
O          O       0.20180   0.15440   0.57659
O          O       0.15440   0.79820   0.57659
O          O       0.84560   0.20180   0.57659
O          O       0.20180   0.84560   0.42341
O          O       0.79820   0.15440   0.42341
O          O       0.84560   0.79820   0.42341
O          O       0.15440   0.20180   0.42341
O          O       0.29820   0.34560   0.07659
O          O       0.70180   0.65440   0.07659
O          O       0.65440   0.29820   0.07659
O          O       0.34560   0.70180   0.07659
O          O       0.70180   0.34560   0.92341
O          O       0.29820   0.65440   0.92341
O          O       0.34560   0.29820   0.92341
O          O       0.65440   0.70180   0.92341
O          O       0.74350   0.96350   0.57504
O          O       0.25650   0.03650   0.57504
O          O       0.03650   0.74350   0.57504
O          O       0.96350   0.25650   0.57504
O          O       0.25650   0.96350   0.42496
O          O       0.74350   0.03650   0.42496
O          O       0.96350   0.74350   0.42496
O          O       0.03650   0.25650   0.42496
O          O       0.24350   0.46350   0.07504
O          O       0.75650   0.53650   0.07504
O          O       0.53650   0.24350   0.07504
O          O       0.46350   0.75650   0.07504
O          O       0.75650   0.46350   0.92496
O          O       0.24350   0.53650   0.92496
O          O       0.46350   0.24350   0.92496
O          O       0.53650   0.75650   0.92496
O          O       0.66590   0.93190   0.47940
O          O       0.33410   0.06810   0.47940
O          O       0.06810   0.66590   0.47940
O          O       0.93190   0.33410   0.47940
O          O       0.33410   0.93190   0.52060
O          O       0.66590   0.06810   0.52060
O          O       0.93190   0.66590   0.52060
O          O       0.06810   0.33410   0.52060
O          O       0.16590   0.43190   0.97940
O          O       0.83410   0.56810   0.97940
O          O       0.56810   0.16590   0.97940
O          O       0.43190   0.83410   0.97940
O          O       0.83410   0.43190   0.02060
O          O       0.16590   0.56810   0.02060
O          O       0.43190   0.16590   0.02060
O          O       0.56810   0.83410   0.02060
O          O       0.71700   0.81340   0.47888
O          O       0.28300   0.18660   0.47888
O          O       0.18660   0.71700   0.47888
O          O       0.81340   0.28300   0.47888
O          O       0.28300   0.81340   0.52112
O          O       0.71700   0.18660   0.52112
O          O       0.81340   0.71700   0.52112
O          O       0.18660   0.28300   0.52112
O          O       0.21700   0.31340   0.97888
O          O       0.78300   0.68660   0.97888
O          O       0.68660   0.21700   0.97888
O          O       0.31340   0.78300   0.97888
O          O       0.78300   0.31340   0.02112
O          O       0.21700   0.68660   0.02112
O          O       0.31340   0.21700   0.02112
O          O       0.68660   0.78300   0.02112
O          O       0.82210   0.92730   0.48113
O          O       0.17790   0.07270   0.48113
O          O       0.07270   0.82210   0.48113
O          O       0.92730   0.17790   0.48113
O          O       0.17790   0.92730   0.51887
O          O       0.82210   0.07270   0.51887
O          O       0.92730   0.82210   0.51887
O          O       0.07270   0.17790   0.51887
O          O       0.32210   0.42730   0.98113
O          O       0.67790   0.57270   0.98113
O          O       0.57270   0.32210   0.98113
O          O       0.42730   0.67790   0.98113
O          O       0.67790   0.42730   0.01887
O          O       0.32210   0.57270   0.01887
O          O       0.42730   0.32210   0.01887
O          O       0.57270   0.67790   0.01887
O          O       0.34240   0.74220   0.36470
O          O       0.65760   0.25780   0.36470
O          O       0.25780   0.34240   0.36470
O          O       0.74220   0.65760   0.36470
O          O       0.65760   0.74220   0.63530
O          O       0.34240   0.25780   0.63530
O          O       0.74220   0.34240   0.63530
O          O       0.25780   0.65760   0.63530
O          O       0.84240   0.24220   0.86470
O          O       0.15760   0.75780   0.86470
O          O       0.75780   0.84240   0.86470
O          O       0.24220   0.15760   0.86470
O          O       0.15760   0.24220   0.13530
O          O       0.84240   0.75780   0.13530
O          O       0.24220   0.84240   0.13530
O          O       0.75780   0.15760   0.13530
C          C       0.40470   0.74890   0.33930
C          C       0.59530   0.25110   0.33930
C          C       0.25110   0.40470   0.33930
C          C       0.74890   0.59530   0.33930
C          C       0.59530   0.74890   0.66070
C          C       0.40470   0.25110   0.66070
C          C       0.74890   0.40470   0.66070
C          C       0.25110   0.59530   0.66070
C          C       0.90470   0.24890   0.83930
C          C       0.09530   0.75110   0.83930
C          C       0.75110   0.90470   0.83930
C          C       0.24890   0.09530   0.83930
C          C       0.09530   0.24890   0.16070
C          C       0.90470   0.75110   0.16070
C          C       0.24890   0.90470   0.16070
C          C       0.75110   0.09530   0.16070
C          C       0.76010   0.90810   0.77870
C          C       0.23990   0.09190   0.77870
C          C       0.09190   0.76010   0.77870
C          C       0.90810   0.23990   0.77870
C          C       0.23990   0.90810   0.22130
C          C       0.76010   0.09190   0.22130
C          C       0.90810   0.76010   0.22130
C          C       0.09190   0.23990   0.22130
C          C       0.26010   0.40810   0.27870
C          C       0.73990   0.59190   0.27870
C          C       0.59190   0.26010   0.27870
C          C       0.40810   0.73990   0.27870
C          C       0.73990   0.40810   0.72130
C          C       0.26010   0.59190   0.72130
C          C       0.40810   0.26010   0.72130
C          C       0.59190   0.73990   0.72130
C          C       0.79250   0.84750   0.75030
C          C       0.20750   0.15250   0.75030
C          C       0.15250   0.79250   0.75030
C          C       0.84750   0.20750   0.75030
C          C       0.20750   0.84750   0.24970
C          C       0.79250   0.15250   0.24970
C          C       0.84750   0.79250   0.24970
C          C       0.15250   0.20750   0.24970
C          C       0.29250   0.34750   0.25030
C          C       0.70750   0.65250   0.25030
C          C       0.65250   0.29250   0.25030
C          C       0.34750   0.70750   0.25030
C          C       0.70750   0.34750   0.74970
C          C       0.29250   0.65250   0.74970
C          C       0.34750   0.29250   0.74970
C          C       0.65250   0.70750   0.74970
H          H       0.81210   0.80580   0.77060
H          H       0.18790   0.19420   0.77060
H          H       0.19420   0.81210   0.77060
H          H       0.80580   0.18790   0.77060
H          H       0.18790   0.80580   0.22940
H          H       0.81210   0.19420   0.22940
H          H       0.80580   0.81210   0.22940
H          H       0.19420   0.18790   0.22940
H          H       0.31210   0.30580   0.27060
H          H       0.68790   0.69420   0.27060
H          H       0.69420   0.31210   0.27060
H          H       0.30580   0.68790   0.27060
H          H       0.68790   0.30580   0.72940
H          H       0.31210   0.69420   0.72940
H          H       0.30580   0.31210   0.72940
H          H       0.69420   0.68790   0.72940
C          C       0.79700   0.84570   0.69360
C          C       0.20300   0.15430   0.69360
C          C       0.15430   0.79700   0.69360
C          C       0.84570   0.20300   0.69360
C          C       0.20300   0.84570   0.30640
C          C       0.79700   0.15430   0.30640
C          C       0.84570   0.79700   0.30640
C          C       0.15430   0.20300   0.30640
C          C       0.29700   0.34570   0.19360
C          C       0.70300   0.65430   0.19360
C          C       0.65430   0.29700   0.19360
C          C       0.34570   0.70300   0.19360
C          C       0.70300   0.34570   0.80640
C          C       0.29700   0.65430   0.80640
C          C       0.34570   0.29700   0.80640
C          C       0.65430   0.70300   0.80640
H          H       0.82070   0.80400   0.67580
H          H       0.17930   0.19600   0.67580
H          H       0.19600   0.82070   0.67580
H          H       0.80400   0.17930   0.67580
H          H       0.17930   0.80400   0.32420
H          H       0.82070   0.19600   0.32420
H          H       0.80400   0.82070   0.32420
H          H       0.19600   0.17930   0.32420
H          H       0.32070   0.30400   0.17580
H          H       0.67930   0.69600   0.17580
H          H       0.69600   0.32070   0.17580
H          H       0.30400   0.67930   0.17580
H          H       0.67930   0.30400   0.82420
H          H       0.32070   0.69600   0.82420
H          H       0.30400   0.32070   0.82420
H          H       0.69600   0.67930   0.82420
C          C       0.76680   0.90540   0.66220
C          C       0.23320   0.09460   0.66220
C          C       0.09460   0.76680   0.66220
C          C       0.90540   0.23320   0.66220
C          C       0.23320   0.90540   0.33780
C          C       0.76680   0.09460   0.33780
C          C       0.90540   0.76680   0.33780
C          C       0.09460   0.23320   0.33780
C          C       0.26680   0.40540   0.16220
C          C       0.73320   0.59460   0.16220
C          C       0.59460   0.26680   0.16220
C          C       0.40540   0.73320   0.16220
C          C       0.73320   0.40540   0.83780
C          C       0.26680   0.59460   0.83780
C          C       0.40540   0.26680   0.83780
C          C       0.59460   0.73320   0.83780
C          C       0.73370   0.96720   0.68940
C          C       0.26630   0.03280   0.68940
C          C       0.03280   0.73370   0.68940
C          C       0.96720   0.26630   0.68940
C          C       0.26630   0.96720   0.31060
C          C       0.73370   0.03280   0.31060
C          C       0.96720   0.73370   0.31060
C          C       0.03280   0.26630   0.31060
C          C       0.23370   0.46720   0.18940
C          C       0.76630   0.53280   0.18940
C          C       0.53280   0.23370   0.18940
C          C       0.46720   0.76630   0.18940
C          C       0.76630   0.46720   0.81060
C          C       0.23370   0.53280   0.81060
C          C       0.46720   0.23370   0.81060
C          C       0.53280   0.76630   0.81060
H          H       0.71320   0.00840   0.66900
H          H       0.28680   0.99160   0.66900
H          H       0.99160   0.71320   0.66900
H          H       0.00840   0.28680   0.66900
H          H       0.28680   0.00840   0.33100
H          H       0.71320   0.99160   0.33100
H          H       0.00840   0.71320   0.33100
H          H       0.99160   0.28680   0.33100
H          H       0.21320   0.50840   0.16900
H          H       0.78680   0.49160   0.16900
H          H       0.49160   0.21320   0.16900
H          H       0.50840   0.78680   0.16900
H          H       0.78680   0.50840   0.83100
H          H       0.21320   0.49160   0.83100
H          H       0.50840   0.21320   0.83100
H          H       0.49160   0.78680   0.83100
C          C       0.73110   0.96760   0.74750
C          C       0.26890   0.03240   0.74750
C          C       0.03240   0.73110   0.74750
C          C       0.96760   0.26890   0.74750
C          C       0.26890   0.96760   0.25250
C          C       0.73110   0.03240   0.25250
C          C       0.96760   0.73110   0.25250
C          C       0.03240   0.26890   0.25250
C          C       0.23110   0.46760   0.24750
C          C       0.76890   0.53240   0.24750
C          C       0.53240   0.23110   0.24750
C          C       0.46760   0.76890   0.24750
C          C       0.76890   0.46760   0.75250
C          C       0.23110   0.53240   0.75250
C          C       0.46760   0.23110   0.75250
C          C       0.53240   0.76890   0.75250
H          H       0.70880   0.00970   0.76580
H          H       0.29120   0.99030   0.76580
H          H       0.99030   0.70880   0.76580
H          H       0.00970   0.29120   0.76580
H          H       0.29120   0.00970   0.23420
H          H       0.70880   0.99030   0.23420
H          H       0.00970   0.70880   0.23420
H          H       0.99030   0.29120   0.23420
H          H       0.20880   0.50970   0.26580
H          H       0.79120   0.49030   0.26580
H          H       0.49030   0.20880   0.26580
H          H       0.50970   0.79120   0.26580
H          H       0.79120   0.50970   0.73420
H          H       0.20880   0.49030   0.73420
H          H       0.50970   0.20880   0.73420
H          H       0.49030   0.79120   0.73420
C          C       0.77020   0.90360   0.60010
C          C       0.22980   0.09640   0.60010
C          C       0.09640   0.77020   0.60010
C          C       0.90360   0.22980   0.60010
C          C       0.22980   0.90360   0.39990
C          C       0.77020   0.09640   0.39990
C          C       0.90360   0.77020   0.39990
C          C       0.09640   0.22980   0.39990
C          C       0.27020   0.40360   0.10010
C          C       0.72980   0.59640   0.10010
C          C       0.59640   0.27020   0.10010
C          C       0.40360   0.72980   0.10010
C          C       0.72980   0.40360   0.89990
C          C       0.27020   0.59640   0.89990
C          C       0.40360   0.27020   0.89990
C          C       0.59640   0.72980   0.89990
C          C       0.52940   0.87480   0.43130
C          C       0.47060   0.12520   0.43130
C          C       0.12520   0.52940   0.43130
C          C       0.87480   0.47060   0.43130
C          C       0.47060   0.87480   0.56870
C          C       0.52940   0.12520   0.56870
C          C       0.87480   0.52940   0.56870
C          C       0.12520   0.47060   0.56870
C          C       0.02940   0.37480   0.93130
C          C       0.97060   0.62520   0.93130
C          C       0.62520   0.02940   0.93130
C          C       0.37480   0.97060   0.93130
C          C       0.97060   0.37480   0.06870
C          C       0.02940   0.62520   0.06870
C          C       0.37480   0.02940   0.06870
C          C       0.62520   0.97060   0.06870
H          H       0.52730   0.92320   0.44840
H          H       0.47270   0.07680   0.44840
H          H       0.07680   0.52730   0.44840
H          H       0.92320   0.47270   0.44840
H          H       0.47270   0.92320   0.55160
H          H       0.52730   0.07680   0.55160
H          H       0.92320   0.52730   0.55160
H          H       0.07680   0.47270   0.55160
H          H       0.02730   0.42320   0.94840
H          H       0.97270   0.57680   0.94840
H          H       0.57680   0.02730   0.94840
H          H       0.42320   0.97270   0.94840
H          H       0.97270   0.42320   0.05160
H          H       0.02730   0.57680   0.05160
H          H       0.42320   0.02730   0.05160
H          H       0.57680   0.97270   0.05160
C          C       0.46560   0.84870   0.40320
C          C       0.53440   0.15130   0.40320
C          C       0.15130   0.46560   0.40320
C          C       0.84870   0.53440   0.40320
C          C       0.53440   0.84870   0.59680
C          C       0.46560   0.15130   0.59680
C          C       0.84870   0.46560   0.59680
C          C       0.15130   0.53440   0.59680
C          C       0.96560   0.34870   0.90320
C          C       0.03440   0.65130   0.90320
C          C       0.65130   0.96560   0.90320
C          C       0.34870   0.03440   0.90320
C          C       0.03440   0.34870   0.09680
C          C       0.96560   0.65130   0.09680
C          C       0.34870   0.96560   0.09680
C          C       0.65130   0.03440   0.09680
H          H       0.41840   0.87450   0.40560
H          H       0.58160   0.12550   0.40560
H          H       0.12550   0.41840   0.40560
H          H       0.87450   0.58160   0.40560
H          H       0.58160   0.87450   0.59440
H          H       0.41840   0.12550   0.59440
H          H       0.87450   0.41840   0.59440
H          H       0.12550   0.58160   0.59440
H          H       0.91840   0.37450   0.90560
H          H       0.08160   0.62550   0.90560
H          H       0.62550   0.91840   0.90560
H          H       0.37450   0.08160   0.90560
H          H       0.08160   0.37450   0.09440
H          H       0.91840   0.62550   0.09440
H          H       0.37450   0.91840   0.09440
H          H       0.62550   0.08160   0.09440
C          C       0.47380   0.78240   0.37110
C          C       0.52620   0.21760   0.37110
C          C       0.21760   0.47380   0.37110
C          C       0.78240   0.52620   0.37110
C          C       0.52620   0.78240   0.62890
C          C       0.47380   0.21760   0.62890
C          C       0.78240   0.47380   0.62890
C          C       0.21760   0.52620   0.62890
C          C       0.97380   0.28240   0.87110
C          C       0.02620   0.71760   0.87110
C          C       0.71760   0.97380   0.87110
C          C       0.28240   0.02620   0.87110
C          C       0.02620   0.28240   0.12890
C          C       0.97380   0.71760   0.12890
C          C       0.28240   0.97380   0.12890
C          C       0.71760   0.02620   0.12890
C          C       0.53970   0.74030   0.37470
C          C       0.46030   0.25970   0.37470
C          C       0.25970   0.53970   0.37470
C          C       0.74030   0.46030   0.37470
C          C       0.46030   0.74030   0.62530
C          C       0.53970   0.25970   0.62530
C          C       0.74030   0.53970   0.62530
C          C       0.25970   0.46030   0.62530
C          C       0.03970   0.24030   0.87470
C          C       0.96030   0.75970   0.87470
C          C       0.75970   0.03970   0.87470
C          C       0.24030   0.96030   0.87470
C          C       0.96030   0.24030   0.12530
C          C       0.03970   0.75970   0.12530
C          C       0.24030   0.03970   0.12530
C          C       0.75970   0.96030   0.12530
H          H       0.54350   0.69370   0.35540
H          H       0.45650   0.30630   0.35540
H          H       0.30630   0.54350   0.35540
H          H       0.69370   0.45650   0.35540
H          H       0.45650   0.69370   0.64460
H          H       0.54350   0.30630   0.64460
H          H       0.69370   0.54350   0.64460
H          H       0.30630   0.45650   0.64460
H          H       0.04350   0.19370   0.85540
H          H       0.95650   0.80630   0.85540
H          H       0.80630   0.04350   0.85540
H          H       0.19370   0.95650   0.85540
H          H       0.95650   0.19370   0.14460
H          H       0.04350   0.80630   0.14460
H          H       0.19370   0.04350   0.14460
H          H       0.80630   0.95650   0.14460
C          C       0.60090   0.76510   0.40640
C          C       0.39910   0.23490   0.40640
C          C       0.23490   0.60090   0.40640
C          C       0.76510   0.39910   0.40640
C          C       0.39910   0.76510   0.59360
C          C       0.60090   0.23490   0.59360
C          C       0.76510   0.60090   0.59360
C          C       0.23490   0.39910   0.59360
C          C       0.10090   0.26510   0.90640
C          C       0.89910   0.73490   0.90640
C          C       0.73490   0.10090   0.90640
C          C       0.26510   0.89910   0.90640
C          C       0.89910   0.26510   0.09360
C          C       0.10090   0.73490   0.09360
C          C       0.26510   0.10090   0.09360
C          C       0.73490   0.89910   0.09360
H          H       0.64560   0.73510   0.40800
H          H       0.35440   0.26490   0.40800
H          H       0.26490   0.64560   0.40800
H          H       0.73510   0.35440   0.40800
H          H       0.35440   0.73510   0.59200
H          H       0.64560   0.26490   0.59200
H          H       0.73510   0.64560   0.59200
H          H       0.26490   0.35440   0.59200
H          H       0.14560   0.23510   0.90800
H          H       0.85440   0.76490   0.90800
H          H       0.76490   0.14560   0.90800
H          H       0.23510   0.85440   0.90800
H          H       0.85440   0.23510   0.09200
H          H       0.14560   0.76490   0.09200
H          H       0.23510   0.14560   0.09200
H          H       0.76490   0.85440   0.09200
C          C       0.59780   0.83190   0.43540
C          C       0.40220   0.16810   0.43540
C          C       0.16810   0.59780   0.43540
C          C       0.83190   0.40220   0.43540
C          C       0.40220   0.83190   0.56460
C          C       0.59780   0.16810   0.56460
C          C       0.83190   0.59780   0.56460
C          C       0.16810   0.40220   0.56460
C          C       0.09780   0.33190   0.93540
C          C       0.90220   0.66810   0.93540
C          C       0.66810   0.09780   0.93540
C          C       0.33190   0.90220   0.93540
C          C       0.90220   0.33190   0.06460
C          C       0.09780   0.66810   0.06460
C          C       0.33190   0.09780   0.06460
C          C       0.66810   0.90220   0.06460
C          C       0.66490   0.86140   0.46680
C          C       0.33510   0.13860   0.46680
C          C       0.13860   0.66490   0.46680
C          C       0.86140   0.33510   0.46680
C          C       0.33510   0.86140   0.53320
C          C       0.66490   0.13860   0.53320
C          C       0.86140   0.66490   0.53320
C          C       0.13860   0.33510   0.53320
C          C       0.16490   0.36140   0.96680
C          C       0.83510   0.63860   0.96680
C          C       0.63860   0.16490   0.96680
C          C       0.36140   0.83510   0.96680
C          C       0.83510   0.36140   0.03320
C          C       0.16490   0.63860   0.03320
C          C       0.36140   0.16490   0.03320
C          C       0.63860   0.83510   0.03320
H          H       0.84933   0.92961   0.44464
H          H       0.15067   0.07039   0.44464
H          H       0.07039   0.84933   0.44464
H          H       0.92961   0.15067   0.44464
H          H       0.15067   0.92961   0.55536
H          H       0.84933   0.07039   0.55536
H          H       0.92961   0.84933   0.55536
H          H       0.07039   0.15067   0.55536
H          H       0.34933   0.42961   0.94464
H          H       0.65067   0.57039   0.94464
H          H       0.57039   0.34933   0.94464
H          H       0.42961   0.65067   0.94464
H          H       0.65067   0.42961   0.05536
H          H       0.34933   0.57039   0.05536
H          H       0.42961   0.34933   0.05536
H          H       0.57039   0.65067   0.05536
