data_crystal

_cell_length_a    12.67415
_cell_length_b    12.67415
_cell_length_c    12.67415
_cell_angle_alpha 60.00000
_cell_angle_beta  60.00000
_cell_angle_gamma 60.00000

_space_group_name_Hall 'P 1'
_space_group_name_H-M_alt 'P 1'

loop_
_symmetry_equiv_pos_as_xyz
 'x,y,z'

loop_
_atom_site_label
_atom_site_type_symbol
_atom_site_fract_x
_atom_site_fract_y
_atom_site_fract_z
C          C       0.66276   0.00000   0.00000
C          C       0.00000   0.66276   0.00000
C          C       0.66276   0.00000   0.33724
C          C       0.00000   0.66276   0.33724
C          C       1.00000   0.00000   0.66276
C          C       0.66276   0.33724   0.00000
C          C       0.33724   0.66276   0.00000
C          C       1.00000   0.00000   0.33724
C          C       0.00000   0.33724   0.66276
C          C       0.33724   0.00000   0.66276
C          C       0.00000   0.33724   0.00000
C          C       0.33724   0.00000   0.00000
C          C       0.54694   0.00000   0.00000
C          C       0.00000   0.54694   0.00000
C          C       0.54694   0.00000   0.45306
C          C       0.00000   0.54694   0.45306
C          C       1.00000   0.00000   0.54694
C          C       0.54694   0.45306   0.00000
C          C       0.45306   0.54694   0.00000
C          C       1.00000   0.00000   0.45306
C          C       0.00000   0.45306   0.54694
C          C       0.45306   0.00000   0.54694
C          C       0.00000   0.45306   0.00000
C          C       0.45306   0.00000   0.00000
O          O       0.78550   0.07150   0.07150
O          O       0.92850   0.92850   0.92850
O          O       0.07150   0.78550   0.07150
O          O       0.92850   0.92850   0.21450
O          O       0.07150   0.07150   0.78550
O          O       0.92850   0.21450   0.92850
O          O       0.21450   0.92850   0.92850
O          O       0.07150   0.07150   0.07150
O          O       0.70068   0.91030   0.08970
O          O       0.91030   0.70068   0.08970
O          O       0.70068   0.91030   0.29932
O          O       0.91030   0.70068   0.29932
O          O       0.70068   0.08970   0.91030
O          O       0.08970   0.70068   0.91030
O          O       0.70068   0.08970   0.29932
O          O       0.08970   0.70068   0.29932
O          O       0.91030   0.08970   0.70068
O          O       0.70068   0.29932   0.91030
O          O       0.08970   0.91030   0.70068
O          O       0.70068   0.29932   0.08970
O          O       0.29932   0.70068   0.91030
O          O       0.91030   0.08970   0.29932
O          O       0.29932   0.70068   0.08970
O          O       0.08970   0.91030   0.29932
O          O       0.91030   0.29932   0.70068
O          O       0.29932   0.91030   0.70068
O          O       0.91030   0.29932   0.08970
O          O       0.29932   0.91030   0.08970
O          O       0.08970   0.29932   0.70068
O          O       0.29932   0.08970   0.70068
O          O       0.08970   0.29932   0.91030
O          O       0.29932   0.08970   0.91030
Zr         Zr      0.86331   0.86331   0.13669
Zr         Zr      0.86331   0.13669   0.86331
Zr         Zr      0.13669   0.86331   0.86331
Zr         Zr      0.86331   0.13669   0.13669
Zr         Zr      0.13669   0.86331   0.13669
Zr         Zr      0.13669   0.13669   0.86331
