#======================================================================

# CRYSTAL DATA

#----------------------------------------------------------------------

data_VESTA_phase_1


_chemical_name_common                  'BasoliteA520'
_cell_length_a                         6.842(3)
_cell_length_b                         12.0877(22)
_cell_length_c                         14.21(1)
_cell_angle_alpha                      90
_cell_angle_beta                       122.547(62)
_cell_angle_gamma                      90
_space_group_name_H-M_alt              'P 21/c'
_space_group_IT_number                 14

loop_
_space_group_symop_operation_xyz
   'x, y, z'
   '-x, -y, -z'
   '-x, y+1/2, -z+1/2'
   'x, -y+1/2, z+1/2'

loop_
   _atom_site_label
   _atom_site_occupancy
   _atom_site_fract_x
   _atom_site_fract_y
   _atom_site_fract_z
   _atom_site_adp_type
   _atom_site_B_iso_or_equiv
   _atom_site_type_symbol
   Al1        1.0     0.500000      0.500000      0.000000     Biso  1.000000 Al
   Al2        1.0     0.000000      0.500000      0.000000     Biso  1.000000 Al
   O2         1.0     0.247050      0.400150      0.115910     Biso  1.000000 O
   O3         1.0     0.538440      0.368770      0.084380     Biso  1.000000 O
   O4         1.0     0.450600      0.093300      0.379670     Biso  1.000000 O
   O5         1.0     0.782760      0.113340      0.399420     Biso  1.000000 O
   C1         1.0     0.429770      0.346990      0.133820     Biso  1.000000 C
   C2         1.0     0.554440      0.264960      0.222030     Biso  1.000000 C
   C3         1.0     0.455780      0.227920      0.273810     Biso  1.000000 C
   C4         1.0     0.578690      0.140990      0.360400     Biso  1.000000 C
   H2         1.0     0.729680      0.232170      0.243060     Biso  1.000000 H
   H3         1.0     0.277720      0.257870      0.251620     Biso  1.000000 H
   O1         1.0     0.819880      0.482690      0.059850     Biso  1.000000 O
   H1         1.0     0.922950      0.525580      0.130660     Biso  1.000000 H
   O2         1.0    -0.247050      0.599850     -0.115910     Biso  1.000000 O
   O3         1.0    -0.538440      0.631230     -0.084380     Biso  1.000000 O
   O4         1.0    -0.450600      0.906700     -0.379670     Biso  1.000000 O
   O5         1.0    -0.782760      0.886660     -0.399420     Biso  1.000000 O
   C1         1.0    -0.429770      0.653010     -0.133820     Biso  1.000000 C
   C2         1.0    -0.554440      0.735040     -0.222030     Biso  1.000000 C
   C3         1.0    -0.455780      0.772080     -0.273810     Biso  1.000000 C
   C4         1.0    -0.578690      0.859010     -0.360400     Biso  1.000000 C
   H2         1.0    -0.729680      0.767830     -0.243060     Biso  1.000000 H
   H3         1.0    -0.277720      0.742130     -0.251620     Biso  1.000000 H
   O1         1.0     0.180120      0.517310     -0.059850     Biso  1.000000 O
   H1         1.0     0.077050      0.474420     -0.130660     Biso  1.000000 H
   Al1        1.0    -0.500000      0.500000      0.000000     Biso  1.000000 Al
   Al1        1.0    -0.500000      1.000000     -0.500000     Biso  1.000000 Al
   Al1        1.0     0.500000      0.000000      0.500000     Biso  1.000000 Al
   Al2        1.0     1.000000      0.500000      0.000000     Biso  1.000000 Al
   Al2        1.0    -1.000000      1.000000     -0.500000     Biso  1.000000 Al
   Al2        1.0     1.000000      0.000000      0.500000     Biso  1.000000 Al
   O3         1.0     0.461560      0.631230     -0.084380     Biso  1.000000 O
   O4         1.0     0.549400      0.593300      0.120330     Biso  1.000000 O
   O4         1.0     0.450600      0.406700     -0.120330     Biso  1.000000 O
   O5         1.0     0.217240      0.613340      0.100580     Biso  1.000000 O
   O5         1.0    -0.217240      0.386660     -0.100580     Biso  1.000000 O
   O1         1.0    -0.180120      0.482690      0.059850     Biso  1.000000 O
