data_crystal

_cell_length_a    18.51500
_cell_length_b    18.51500
_cell_length_c    20.24500
_cell_angle_alpha 90.00000
_cell_angle_beta  90.00000
_cell_angle_gamma 90.00000

_space_group_name_Hall 'P 1'
_space_group_name_H-M_alt 'P 1'

loop_
_symmetry_equiv_pos_as_xyz
 'x,y,z'

loop_
_atom_site_label
_atom_site_type_symbol
_atom_site_fract_x
_atom_site_fract_y
_atom_site_fract_z
C          C       0.34090   0.50000   0.00000
H          H       0.39110   0.50000   0.00000
C          C       0.34770   0.25000   0.12760
H          H       0.39300   0.25000   0.14750
C          C       0.24100   0.28690   0.10200
H          H       0.20100   0.31660   0.09610
N          N       0.30190   0.46830   0.04700
N          N       0.31380   0.31010   0.11270
Zn         Zn      0.33653   0.41347   0.12500
C          C       0.75000   0.09090   0.25000
H          H       0.75000   0.14110   0.25000
C          C       0.00000   0.09770   0.37760
H          H       0.00000   0.14300   0.39750
C          C       0.75370   0.98170   0.28960
H          H       0.75890   0.94330   0.31870
C          C       0.71770   0.98160   0.23170
H          H       0.69560   0.94130   0.21310
C          C       0.96310   0.99100   0.35200
H          H       0.93340   0.95100   0.34610
N          N       0.78170   0.05190   0.29700
N          N       0.93990   0.06380   0.36270
Zn         Zn      0.83653   0.08653   0.37500
C          C       0.15910   0.50000   0.50000
H          H       0.10890   0.50000   0.50000
C          C       0.15230   0.75000   0.62760
H          H       0.10700   0.75000   0.64750
C          C       0.25900   0.71310   0.60200
H          H       0.29900   0.68340   0.59610
N          N       0.19810   0.53170   0.54700
N          N       0.18620   0.68990   0.61270
Zn         Zn      0.16347   0.58653   0.62500
C          C       0.75000   0.90910   0.75000
H          H       0.75000   0.85890   0.75000
C          C       0.50000   0.90231   0.87760
H          H       0.50000   0.85700   0.89750
C          C       0.53690   0.00900   0.85200
H          H       0.56660   0.04900   0.84610
N          N       0.71830   0.94810   0.79700
N          N       0.56010   0.93620   0.86270
Zn         Zn      0.66347   0.91347   0.87500
C          C       0.34770   0.75000   0.87240
H          H       0.39300   0.75000   0.85250
C          C       0.23170   0.50370   0.96040
H          H       0.19330   0.50890   0.93130
C          C       0.23160   0.46770   0.01830
H          H       0.19130   0.44560   0.03690
C          C       0.24100   0.71310   0.89800
H          H       0.20100   0.68340   0.90390
N          N       0.30190   0.53170   0.95300
N          N       0.31380   0.68990   0.88730
Zn         Zn      0.33653   0.58653   0.87500
C          C       0.50000   0.09770   0.12240
H          H       0.50000   0.14300   0.10250
C          C       0.53690   0.99100   0.14800
H          H       0.56660   0.95100   0.15390
N          N       0.71830   0.05190   0.20300
N          N       0.56010   0.06380   0.13730
Zn         Zn      0.66347   0.08653   0.12500
C          C       0.15230   0.25000   0.37240
H          H       0.10700   0.25000   0.35250
C          C       0.26830   0.49630   0.46040
H          H       0.30670   0.49110   0.43130
C          C       0.26840   0.53230   0.51830
H          H       0.30870   0.55440   0.53690
C          C       0.25900   0.28690   0.39800
H          H       0.29900   0.31660   0.40390
N          N       0.19810   0.46830   0.45300
N          N       0.18620   0.31010   0.38730
Zn         Zn      0.16347   0.41347   0.37500
C          C       0.00000   0.90230   0.62240
H          H       0.00000   0.85700   0.60250
C          C       0.75370   0.01830   0.71040
H          H       0.75890   0.05670   0.68130
C          C       0.71770   0.01840   0.76830
H          H       0.69560   0.05870   0.78690
C          C       0.96310   0.00900   0.64800
H          H       0.93340   0.04900   0.65390
N          N       0.78170   0.94810   0.70300
N          N       0.93990   0.93620   0.63730
Zn         Zn      0.83653   0.91347   0.62500
C          C       0.65910   0.50000   0.00000
H          H       0.60890   0.50000   0.00000
C          C       0.65230   0.75000   0.87240
H          H       0.60700   0.75000   0.85250
C          C       0.76830   0.50370   0.96040
H          H       0.80670   0.50890   0.93130
C          C       0.76840   0.46770   0.01830
H          H       0.80870   0.44560   0.03690
C          C       0.75900   0.71310   0.89800
H          H       0.79900   0.68340   0.90390
N          N       0.69810   0.53170   0.95300
N          N       0.68620   0.68990   0.88730
Zn         Zn      0.66347   0.58653   0.87500
C          C       0.25000   0.90910   0.75000
H          H       0.25000   0.85890   0.75000
C          C       0.03690   0.00900   0.64800
H          H       0.06660   0.04900   0.65390
N          N       0.21830   0.94810   0.70300
N          N       0.06010   0.93620   0.63730
Zn         Zn      0.16347   0.91347   0.62500
C          C       0.84090   0.50000   0.50000
H          H       0.89110   0.50000   0.50000
C          C       0.84770   0.25000   0.37240
H          H       0.89300   0.25000   0.35250
C          C       0.74100   0.28690   0.39800
H          H       0.70100   0.31660   0.40390
N          N       0.80190   0.46830   0.45300
N          N       0.81380   0.31010   0.38730
Zn         Zn      0.83653   0.41347   0.37500
C          C       0.25000   0.09090   0.25000
H          H       0.25000   0.14110   0.25000
C          C       0.46310   0.99100   0.14800
H          H       0.43340   0.95100   0.15390
N          N       0.28170   0.05190   0.20300
N          N       0.43990   0.06380   0.13730
Zn         Zn      0.33653   0.08653   0.12500
C          C       0.65230   0.25000   0.12760
H          H       0.60700   0.25000   0.14750
C          C       0.75900   0.28690   0.10200
H          H       0.79900   0.31660   0.09610
N          N       0.69810   0.46830   0.04700
N          N       0.68620   0.31010   0.11270
Zn         Zn      0.66347   0.41347   0.12500
C          C       0.25370   0.01830   0.78960
H          H       0.25890   0.05670   0.81870
C          C       0.21770   0.01840   0.73170
H          H       0.19560   0.05870   0.71310
C          C       0.46310   0.00900   0.85200
H          H       0.43340   0.04900   0.84610
N          N       0.28170   0.94810   0.79700
N          N       0.43990   0.93620   0.86270
Zn         Zn      0.33653   0.91347   0.87500
C          C       0.84770   0.75000   0.62760
H          H       0.89300   0.75000   0.64750
C          C       0.73170   0.50370   0.53960
H          H       0.69330   0.50890   0.56870
C          C       0.73160   0.46770   0.48170
H          H       0.69130   0.44560   0.46310
C          C       0.74100   0.71310   0.60200
H          H       0.70100   0.68340   0.59610
N          N       0.80190   0.53170   0.54700
N          N       0.81380   0.68990   0.61270
Zn         Zn      0.83653   0.58653   0.62500
C          C       0.24630   0.98170   0.28960
H          H       0.24110   0.94330   0.31870
C          C       0.28230   0.98160   0.23170
H          H       0.30440   0.94130   0.21310
C          C       0.03690   0.99100   0.35200
H          H       0.06660   0.95100   0.34610
N          N       0.21830   0.05190   0.29700
N          N       0.06010   0.06380   0.36270
Zn         Zn      0.16347   0.08653   0.37500
C          C       0.84090   0.00000   0.50000
H          H       0.89110   0.00000   0.50000
C          C       0.74100   0.78690   0.60200
H          H       0.70100   0.81660   0.59610
N          N       0.80190   0.96830   0.54700
N          N       0.81380   0.81010   0.61270
C          C       0.25000   0.59090   0.75000
H          H       0.25000   0.64110   0.75000
C          C       0.50000   0.59770   0.87760
H          H       0.50000   0.64300   0.89750
C          C       0.25370   0.48170   0.78960
H          H       0.25890   0.44330   0.81870
C          C       0.21770   0.48160   0.73170
H          H       0.19560   0.44130   0.71310
C          C       0.46310   0.49100   0.85200
H          H       0.43340   0.45100   0.84610
N          N       0.28170   0.55190   0.79700
N          N       0.43990   0.56380   0.86270
C          C       0.65910   0.00000   0.00000
H          H       0.60890   0.00000   0.00000
C          C       0.76830   0.00370   0.03960
H          H       0.80670   0.00890   0.06870
C          C       0.76840   0.96770   0.98170
H          H       0.80870   0.94560   0.96310
C          C       0.75900   0.21310   0.10200
H          H       0.79900   0.18340   0.09610
N          N       0.69810   0.03170   0.04700
N          N       0.68620   0.18990   0.11270
C          C       0.25000   0.40910   0.25000
H          H       0.25000   0.35890   0.25000
C          C       0.00000   0.40230   0.37760
H          H       0.00000   0.35700   0.39750
C          C       0.24630   0.51830   0.28960
H          H       0.24110   0.55670   0.31870
C          C       0.28230   0.51840   0.23170
H          H       0.30440   0.55870   0.21310
C          C       0.03690   0.50900   0.35200
H          H       0.06660   0.54900   0.34610
N          N       0.21830   0.44810   0.29700
N          N       0.06010   0.43620   0.36270
C          C       0.73170   0.00370   0.46040
H          H       0.69330   0.00890   0.43130
C          C       0.73160   0.96770   0.51830
H          H       0.69130   0.94560   0.53690
C          C       0.74100   0.21310   0.39800
H          H       0.70100   0.18340   0.40390
N          N       0.80190   0.03170   0.45300
N          N       0.81380   0.18990   0.38730
C          C       0.00000   0.59770   0.62240
H          H       0.00000   0.64300   0.60250
C          C       0.03690   0.49100   0.64800
H          H       0.06660   0.45100   0.65390
N          N       0.21830   0.55190   0.70300
N          N       0.06010   0.56380   0.63730
C          C       0.75900   0.78690   0.89800
H          H       0.79900   0.81660   0.90390
N          N       0.69810   0.96830   0.95300
N          N       0.68620   0.81010   0.88730
C          C       0.50000   0.40230   0.12240
H          H       0.50000   0.35700   0.10250
C          C       0.46310   0.50900   0.14800
H          H       0.43340   0.54900   0.15390
N          N       0.28170   0.44810   0.20300
N          N       0.43990   0.43620   0.13730
C          C       0.15910   0.00000   0.50000
H          H       0.10890   0.00000   0.50000
C          C       0.25900   0.21310   0.39800
H          H       0.29900   0.18340   0.40390
N          N       0.19810   0.03170   0.45300
N          N       0.18620   0.18990   0.38730
C          C       0.75000   0.40910   0.25000
H          H       0.75000   0.35890   0.25000
C          C       0.74630   0.51830   0.21040
H          H       0.74110   0.55670   0.18130
C          C       0.78230   0.51840   0.26830
H          H       0.80440   0.55870   0.28690
C          C       0.53690   0.50900   0.14800
H          H       0.56660   0.54900   0.15390
N          N       0.71830   0.44810   0.20300
N          N       0.56010   0.43620   0.13730
C          C       0.34090   0.00000   0.00000
H          H       0.39110   0.00000   0.00000
C          C       0.24100   0.78690   0.89800
H          H       0.20100   0.81660   0.90390
N          N       0.30190   0.96830   0.95300
N          N       0.31380   0.81010   0.88730
C          C       0.75000   0.59090   0.75000
H          H       0.75000   0.64110   0.75000
C          C       0.96310   0.49100   0.64800
H          H       0.93340   0.45100   0.65390
N          N       0.78170   0.55190   0.70300
N          N       0.93990   0.56380   0.63730
C          C       0.26830   0.99630   0.53960
H          H       0.30670   0.99110   0.56870
C          C       0.26840   0.03230   0.48170
H          H       0.30870   0.05440   0.46310
C          C       0.25900   0.78690   0.60200
H          H       0.29900   0.81660   0.59610
N          N       0.19810   0.96830   0.54700
N          N       0.18620   0.81010   0.61270
C          C       0.96310   0.50900   0.35200
H          H       0.93340   0.54900   0.34610
N          N       0.78170   0.44810   0.29700
N          N       0.93990   0.43620   0.36270
C          C       0.23170   0.00370   0.03960
H          H       0.19330   0.00890   0.06870
C          C       0.23160   0.96770   0.98170
H          H       0.19130   0.94560   0.96310
C          C       0.24100   0.21310   0.10200
H          H       0.20100   0.18340   0.09610
N          N       0.30190   0.03170   0.04700
N          N       0.31380   0.18990   0.11270
C          C       0.74630   0.48170   0.78960
H          H       0.74110   0.44330   0.81870
C          C       0.78230   0.48160   0.73170
H          H       0.80440   0.44130   0.71310
C          C       0.53690   0.49100   0.85200
H          H       0.56660   0.45100   0.84610
N          N       0.71830   0.55190   0.79700
N          N       0.56010   0.56380   0.86270
