data_crystal

_cell_length_a    32.62300
_cell_length_b    32.62300
_cell_length_c    11.67700
_cell_angle_alpha 90.00000
_cell_angle_beta  90.00000
_cell_angle_gamma 120.00000

_space_group_name_Hall 'P 1'
_space_group_name_H-M_alt 'P 1'

loop_
_symmetry_equiv_pos_as_xyz
 'x,y,z'

loop_
_atom_site_label
_atom_site_type_symbol
_atom_site_fract_x
_atom_site_fract_y
_atom_site_fract_z
Zn         Zn      0.22437   0.05530   0.78190
Zn         Zn      0.22442   0.11221   1.02890
S          S       0.07417  -0.07417   0.89380
O          O       0.22380   0.11190   0.85550
O          O       0.17130   0.04310   1.02900
O          O       0.28550   0.07380   0.85270
O          O       0.16390   0.01260   0.85900
O          O       0.22400   0.07750   0.62620
O          O       0.27920   0.09680   1.02610
N          N       0.43730   0.10790   1.04580
N          N       0.22540   0.11270   0.20600
C          C       0.10460  -0.02830   0.98900
C          C       0.15090   0.01270   0.96000
C          C       0.36970   0.12110   1.07500
H          H       0.35570   0.13480   1.11770
C          C       0.29860   0.08760   0.95200
C          C       0.08010  -0.03400   1.08700
H          H       0.09060  -0.01220   1.14720
C          C       0.34850   0.09590   0.98250
C          C       0.41590   0.12700   1.10700
H          H       0.43090   0.14460   1.17250
C          C       0.41640   0.08800   0.94700
H          H       0.43250   0.07970   0.89500
C          C       0.37230   0.07950   0.92100
H          H       0.35760   0.06120   0.85680
C          C       0.22420   0.11210   0.57900
C          C       0.22390   0.11200   0.45300
C          C       0.22280   0.14310   0.39400
H          H       0.22280   0.16810   0.43260
C          C       0.22170   0.14360   0.26500
H          H       0.21810   0.16690   0.22830
O          O      -0.04310  -0.17130   1.02900
O          O      -0.01260  -0.16390   0.85900
C          C       0.02830  -0.10460   0.98900
C          C      -0.01270  -0.15090   0.96000
C          C       0.03400  -0.08010   1.08700
H          H       0.01220  -0.09060   1.14720
O          O       0.22400   0.14650   0.62620
C          C       0.22280   0.07970   0.39400
H          H       0.22280   0.05470   0.43260
C          C       0.22170   0.07810   0.26500
H          H       0.21810   0.05120   0.22830
Zn         Zn      0.27803  -0.16426   0.44860
O          O       0.25950  -0.12160   0.51940
O          O       0.23650  -0.15090   0.69280
N          N       0.22540  -0.00400   0.71250
C          C       0.21220  -0.08470   0.74200
H          H       0.19850  -0.11240   0.78440
C          C       0.24570  -0.12230   0.61900
C          C       0.23740  -0.08070   0.64920
C          C       0.20630  -0.04450   0.77400
H          H       0.18870  -0.04710   0.83920
C          C       0.24530  -0.00500   0.61400
H          H       0.25360   0.01940   0.56170
C          C       0.25380  -0.04050   0.58800
H          H       0.27210  -0.03690   0.52350
Zn         Zn     -0.05530  -0.22437   0.78190
Zn         Zn      0.22437   0.16907   0.78190
Zn         Zn      0.49760   0.10896   1.11520
Zn         Zn     -0.11221  -0.22442   1.02890
Zn         Zn      0.22112  -0.22112   0.69560
O          O       0.22140  -0.22140   0.52220
O          O       0.17130   0.12820   1.02900
O          O       0.32070  -0.18200   0.52570
O          O       0.25580  -0.18680   0.29290
O          O       0.27920   0.18240   1.02610
N          N       0.33730  -0.10390   0.37920
H          H       0.18865   0.09433   0.85555
Zn         Zn      0.94470   0.16907   0.78190
Zn         Zn      0.88779   0.11221   1.02890
S          S       1.07417   0.14834   0.89380
O          O       0.88810   0.11190   0.85550
O          O       0.95690   0.12820   1.02900
O          O       0.92620   0.21170   0.85270
O          O       0.98740   0.15130   0.85900
O          O       0.92250   0.14650   0.62620
O          O       0.90320   0.18240   1.02610
N          N       0.89210   0.32930   1.04580
N          N       0.88730   0.11270   0.20600
C          C       1.02830   0.13290   0.98900
C          C       0.98730   0.13820   0.96000
C          C       0.87890   0.24860   1.07500
H          H       0.86520   0.22090   1.11770
C          C       0.91240   0.21100   0.95200
C          C       1.03400   0.11410   1.08700
H          H       1.01220   0.10280   1.14720
C          C       0.90410   0.25260   0.98250
C          C       0.87300   0.28880   1.10700
H          H       0.85540   0.28620   1.17250
C          C       0.91200   0.32830   0.94700
H          H       0.92030   0.35270   0.89500
C          C       0.92050   0.29280   0.92100
H          H       0.93880   0.29640   0.85680
C          C       0.88790   0.11210   0.57900
C          C       0.88800   0.11190   0.45300
C          C       0.85690   0.07970   0.39400
H          H       0.83190   0.05470   0.43260
C          C       0.85640   0.07810   0.26500
H          H       0.83310   0.05120   0.22830
O          O       1.16390   0.15130   0.85900
C          C       1.10460   0.13290   0.98900
C          C       1.15090   0.13820   0.96000
C          C       1.08010   0.11410   1.08700
H          H       1.09060   0.10280   1.14720
O          O       0.85350   0.07750   0.62620
C          C       0.92030   0.14310   0.39400
H          H       0.94530   0.16810   0.43260
C          C       0.92190   0.14360   0.26500
H          H       0.94880   0.16690   0.22830
Zn         Zn      1.16426   0.44230   0.44860
O          O       1.12160   0.38120   0.51940
O          O       1.15090   0.38750   0.69280
N          N       1.00400   0.22940   0.71250
C          C       1.08470   0.29700   0.74200
H          H       1.11240   0.31100   0.78440
C          C       1.12230   0.36810   0.61900
C          C       1.08070   0.31820   0.64920
C          C       1.04450   0.25080   0.77400
H          H       1.04710   0.23580   0.83920
C          C       1.00500   0.25030   0.61400
H          H       0.98060   0.23420   0.56170
C          C       1.04050   0.29440   0.58800
H          H       1.03690   0.30910   0.52350
Zn         Zn      0.83093   0.05530   0.78190
Zn         Zn      0.89104   0.38863   1.11520
Zn         Zn      1.22112   0.44225   0.69560
O          O       1.22140   0.44290   0.52220
O          O       0.87180   0.04310   1.02900
O          O       1.18200   0.50280   0.52570
O          O       1.18680   0.44270   0.29290
O          O       0.81760   0.09680   1.02610
N          N       1.10390   0.44130   0.37920
H          H       0.90567   0.09433   0.85555
Zn         Zn      0.83093   0.77563   0.78190
S          S       0.85166   0.92583   0.89380
O          O       0.88810   0.77620   0.85550
O          O       0.87180   0.82870   1.02900
O          O       0.78830   0.71450   0.85270
O          O       0.84870   0.83610   0.85900
O          O       0.85350   0.77600   0.62620
O          O       0.81760   0.72080   1.02610
N          N       0.67070   0.56270   1.04580
N          N       0.88730   0.77460   0.20600
C          C       0.86710   0.89540   0.98900
C          C       0.86180   0.84910   0.96000
C          C       0.75140   0.63030   1.07500
H          H       0.77910   0.64430   1.11770
C          C       0.78900   0.70140   0.95200
C          C       0.88590   0.91990   1.08700
H          H       0.89720   0.90940   1.14720
C          C       0.74740   0.65150   0.98250
C          C       0.71120   0.58410   1.10700
H          H       0.71380   0.56910   1.17250
C          C       0.67170   0.58360   0.94700
H          H       0.64730   0.56750   0.89500
C          C       0.70720   0.62770   0.92100
H          H       0.70360   0.64240   0.85680
C          C       0.88790   0.77580   0.57900
C          C       0.88810   0.77610   0.45300
C          C       0.92030   0.77720   0.39400
H          H       0.94530   0.77720   0.43260
C          C       0.92190   0.77830   0.26500
H          H       0.94880   0.78190   0.22830
O          O       0.84870   1.01260   0.85900
C          C       0.86710   0.97170   0.98900
C          C       0.86180   1.01270   0.96000
C          C       0.88590   0.96600   1.08700
H          H       0.89720   0.98780   1.14720
O          O       0.92250   0.77600   0.62620
C          C       0.85690   0.77720   0.39400
H          H       0.83190   0.77720   0.43260
C          C       0.85640   0.77830   0.26500
H          H       0.83310   0.78190   0.22830
Zn         Zn      0.55770   0.72197   0.44860
O          O       0.61880   0.74050   0.51940
O          O       0.61250   0.76350   0.69280
N          N       0.77060   0.77460   0.71250
C          C       0.70300   0.78780   0.74200
H          H       0.68900   0.80150   0.78440
C          C       0.63190   0.75430   0.61900
C          C       0.68180   0.76260   0.64920
C          C       0.74920   0.79370   0.77400
H          H       0.76420   0.81130   0.83920
C          C       0.74970   0.75470   0.61400
H          H       0.76580   0.74640   0.56170
C          C       0.70560   0.74620   0.58800
H          H       0.69090   0.72790   0.52350
Zn         Zn      0.61137   0.50240   1.11520
Zn         Zn      0.55775   0.77888   0.69560
O          O       0.55710   0.77860   0.52220
O          O       0.49720   0.67930   0.52570
O          O       0.55730   0.74420   0.29290
O          O       0.90320   0.72080   1.02610
N          N       0.55870   0.66270   0.37920
H          H       0.90567   0.81135   0.85555
O          O       0.92620   0.71450   0.85270
N          N       0.89210   0.56270   1.04580
C          C       0.87890   0.63030   1.07500
H          H       0.86520   0.64430   1.11770
C          C       0.91240   0.70140   0.95200
C          C       0.90410   0.65150   0.98250
C          C       0.87300   0.58410   1.10700
H          H       0.85540   0.56910   1.17250
C          C       0.91200   0.58360   0.94700
H          H       0.92030   0.56750   0.89500
C          C       0.92050   0.62770   0.92100
H          H       0.93880   0.64240   0.85680
Zn         Zn      1.16426   0.72197   0.44860
O          O       1.12160   0.74050   0.51940
O          O       1.15090   0.76350   0.69280
N          N       1.00400   0.77460   0.71250
C          C       1.08470   0.78780   0.74200
H          H       1.11240   0.80150   0.78440
C          C       1.12230   0.75430   0.61900
C          C       1.08070   0.76260   0.64920
C          C       1.04450   0.79370   0.77400
H          H       1.04710   0.81130   0.83920
C          C       1.00500   0.75470   0.61400
H          H       0.98060   0.74640   0.56170
C          C       1.04050   0.74620   0.58800
H          H       1.03690   0.72790   0.52350
Zn         Zn      0.89104   0.50240   1.11520
O          O       1.18200   0.67930   0.52570
O          O       1.18680   0.74420   0.29290
N          N       1.10390   0.66270   0.37920
O          O       0.28550   0.21170   0.85270
N          N       0.43730   0.32930   1.04580
C          C       0.36970   0.24860   1.07500
H          H       0.35570   0.22090   1.11770
C          C       0.29860   0.21100   0.95200
C          C       0.34850   0.25260   0.98250
C          C       0.41590   0.28880   1.10700
H          H       0.43090   0.28620   1.17250
C          C       0.41640   0.32830   0.94700
H          H       0.43250   0.35270   0.89500
C          C       0.37230   0.29280   0.92100
H          H       0.35760   0.29640   0.85680
Zn         Zn      0.27803   0.44230   0.44860
O          O       0.25950   0.38120   0.51940
O          O       0.23650   0.38750   0.69280
N          N       0.22540   0.22940   0.71250
C          C       0.21220   0.29700   0.74200
H          H       0.19850   0.31100   0.78440
C          C       0.24570   0.36810   0.61900
C          C       0.23740   0.31820   0.64920
C          C       0.20630   0.25080   0.77400
H          H       0.18870   0.23580   0.83920
C          C       0.24530   0.25030   0.61400
H          H       0.25360   0.23420   0.56170
C          C       0.25380   0.29440   0.58800
H          H       0.27210   0.30910   0.52350
Zn         Zn      0.49760   0.38863   1.11520
O          O       0.32070   0.50280   0.52570
O          O       0.25580   0.44270   0.29290
N          N       0.33730   0.44130   0.37920
O          O       0.78830   0.07380   0.85270
N          N       0.67070   0.10790   1.04580
C          C       0.75140   0.12110   1.07500
H          H       0.77910   0.13480   1.11770
C          C       0.78900   0.08760   0.95200
C          C       0.74740   0.09590   0.98250
C          C       0.71120   0.12700   1.10700
H          H       0.71380   0.14460   1.17250
C          C       0.67170   0.08800   0.94700
H          H       0.64730   0.07970   0.89500
C          C       0.70720   0.07950   0.92100
H          H       0.70360   0.06120   0.85680
Zn         Zn      0.55770  -0.16426   0.44860
O          O       0.61880  -0.12160   0.51940
O          O       0.61250  -0.15090   0.69280
N          N       0.77060  -0.00400   0.71250
C          C       0.70300  -0.08470   0.74200
H          H       0.68900  -0.11240   0.78440
C          C       0.63190  -0.12230   0.61900
C          C       0.68180  -0.08070   0.64920
C          C       0.74920  -0.04450   0.77400
H          H       0.76420  -0.04710   0.83920
C          C       0.74970  -0.00500   0.61400
H          H       0.76580   0.01940   0.56170
C          C       0.70560  -0.04050   0.58800
H          H       0.69090  -0.03690   0.52350
Zn         Zn      0.61137   0.10896   1.11520
O          O       0.49720  -0.18200   0.52570
O          O       0.55730  -0.18680   0.29290
N          N       0.55870  -0.10390   0.37920
Zn         Zn      0.89109   0.44554   0.36220
S          S       0.74084   0.25916   0.22710
O          O       0.89050   0.44520   0.18880
O          O       0.83800   0.37640   0.36230
O          O       0.95220   0.40710   0.18600
O          O       0.83060   0.34590   0.19230
O          O       0.89070   0.41080  -0.04050
O          O       0.94590   0.43010   0.35940
N          N       0.89210   0.44600  -0.46100
C          C       0.77130   0.30500   0.32200
C          C       0.81760   0.34600   0.29300
C          C       1.03640   0.45440   0.40800
H          H       1.02240   0.46810   0.45100
C          C       0.96530   0.42090   0.28500
C          C       0.74680   0.29930   0.42000
H          H       0.75730   0.32110   0.48050
C          C       1.01520   0.42920   0.31580
C          C       1.08250   0.46040   0.44100
H          H       1.09750   0.47800   0.50590
C          C       1.08300   0.42140   0.28100
H          H       1.09910   0.41310   0.22840
C          C       1.03900   0.41280   0.25400
H          H       1.02430   0.39450   0.19010
C          C       0.89090   0.44540  -0.08800
C          C       0.89060   0.44530  -0.21400
C          C       0.88950   0.47640  -0.27300
H          H       0.88950   0.50140  -0.23410
C          C       0.88840   0.47690  -0.40200
H          H       0.88480   0.50020  -0.43840
O          O       0.62360   0.16200   0.36230
O          O       0.65410   0.16940   0.19230
C          C       0.69500   0.22870   0.32200
C          C       0.65400   0.18240   0.29300
C          C       0.70070   0.25320   0.42000
H          H       0.67890   0.24270   0.48050
O          O       0.89070   0.47980  -0.04050
C          C       0.88950   0.41300  -0.27300
H          H       0.88950   0.38800  -0.23410
C          C       0.88840   0.41140  -0.40200
H          H       0.88480   0.38450  -0.43840
Zn         Zn      0.55446   0.10891   0.36220
O          O       0.83800   0.46150   0.36230
O          O       0.94590   0.51570   0.35940
H          H       0.85532   0.42766   0.18888
Zn         Zn      0.55446   0.44554   0.36220
S          S       0.74084   0.48167   0.22710
O          O       0.55480   0.44520   0.18880
O          O       0.62360   0.46150   0.36230
O          O       0.59290   0.54500   0.18600
O          O       0.65410   0.48460   0.19230
O          O       0.58920   0.47980  -0.04050
O          O       0.56990   0.51570   0.35940
N          N       0.55400   0.44600  -0.46100
C          C       0.69500   0.46620   0.32200
C          C       0.65400   0.47150   0.29300
C          C       0.54560   0.58190   0.40800
H          H       0.53190   0.55420   0.45100
C          C       0.57910   0.54430   0.28500
C          C       0.70070   0.44740   0.42000
H          H       0.67890   0.43610   0.48050
C          C       0.57080   0.58590   0.31580
C          C       0.53960   0.62220   0.44100
H          H       0.52200   0.61960   0.50590
C          C       0.57860   0.66170   0.28100
H          H       0.58690   0.68610   0.22840
C          C       0.58720   0.62610   0.25400
H          H       0.60550   0.62970   0.19010
C          C       0.55460   0.44540  -0.08800
C          C       0.55470   0.44520  -0.21400
C          C       0.52360   0.41300  -0.27300
H          H       0.49860   0.38800  -0.23410
C          C       0.52310   0.41140  -0.40200
H          H       0.49980   0.38450  -0.43840
O          O       0.83060   0.48460   0.19230
C          C       0.77130   0.46620   0.32200
C          C       0.81760   0.47150   0.29300
C          C       0.74680   0.44740   0.42000
H          H       0.75730   0.43610   0.48050
O          O       0.52020   0.41080  -0.04050
C          C       0.58700   0.47640  -0.27300
H          H       0.61200   0.50140  -0.23410
C          C       0.58860   0.47690  -0.40200
H          H       0.61550   0.50020  -0.43840
O          O       0.53850   0.37640   0.36230
O          O       0.48430   0.43010   0.35940
H          H       0.57234   0.42766   0.18888
S          S       0.51833   0.25916   0.22710
O          O       0.55480   0.10950   0.18880
O          O       0.53850   0.16200   0.36230
O          O       0.45500   0.04780   0.18600
O          O       0.51540   0.16940   0.19230
O          O       0.52020   0.10930  -0.04050
O          O       0.48430   0.05410   0.35940
N          N       0.55400   0.10790  -0.46100
C          C       0.53380   0.22870   0.32200
C          C       0.52850   0.18240   0.29300
C          C       0.41810  -0.03640   0.40800
H          H       0.44580  -0.02240   0.45100
C          C       0.45570   0.03470   0.28500
C          C       0.55260   0.25320   0.42000
H          H       0.56390   0.24270   0.48050
C          C       0.41410  -0.01520   0.31580
C          C       0.37780  -0.08250   0.44100
H          H       0.38040  -0.09750   0.50590
C          C       0.33830  -0.08300   0.28100
H          H       0.31390  -0.09910   0.22840
C          C       0.37390  -0.03900   0.25400
H          H       0.37030  -0.02430   0.19010
C          C       0.55460   0.10910  -0.08800
C          C       0.55480   0.10940  -0.21400
C          C       0.58700   0.11050  -0.27300
H          H       0.61200   0.11050  -0.23410
C          C       0.58860   0.11160  -0.40200
H          H       0.61550   0.11520  -0.43840
O          O       0.51540   0.34590   0.19230
C          C       0.53380   0.30500   0.32200
C          C       0.52850   0.34600   0.29300
C          C       0.55260   0.29930   0.42000
H          H       0.56390   0.32110   0.48050
O          O       0.58920   0.10930  -0.04050
C          C       0.52360   0.11050  -0.27300
H          H       0.49860   0.11050  -0.23410
C          C       0.52310   0.11160  -0.40200
H          H       0.49980   0.11520  -0.43840
O          O       0.56990   0.05410   0.35940
H          H       0.57234   0.14468   0.18888
O          O       0.59290   0.04780   0.18600
C          C       0.54560  -0.03640   0.40800
H          H       0.53190  -0.02240   0.45100
C          C       0.57910   0.03470   0.28500
C          C       0.57080  -0.01520   0.31580
C          C       0.53960  -0.08250   0.44100
H          H       0.52200  -0.09750   0.50590
C          C       0.57860  -0.08300   0.28100
H          H       0.58690  -0.09910   0.22840
C          C       0.58720  -0.03900   0.25400
H          H       0.60550  -0.02430   0.19010
O          O       0.95220   0.54500   0.18600
C          C       1.03640   0.58190   0.40800
H          H       1.02240   0.55420   0.45100
C          C       0.96530   0.54430   0.28500
C          C       1.01520   0.58590   0.31580
C          C       1.08250   0.62220   0.44100
H          H       1.09750   0.61960   0.50590
C          C       1.08300   0.66170   0.28100
H          H       1.09910   0.68610   0.22840
C          C       1.03900   0.62610   0.25400
H          H       1.02430   0.62970   0.19010
O          O       0.45500   0.40710   0.18600
C          C       0.41810   0.45440   0.40800
H          H       0.44580   0.46810   0.45100
C          C       0.45570   0.42090   0.28500
C          C       0.41410   0.42920   0.31580
C          C       0.37780   0.46040   0.44100
H          H       0.38040   0.47800   0.50590
C          C       0.33830   0.42140   0.28100
H          H       0.31390   0.41310   0.22840
C          C       0.37390   0.41280   0.25400
H          H       0.37030   0.39450   0.19010
S          S       0.40750   0.59250   0.56050
O          O       0.50460   0.70980   0.69570
N          N       0.55870   0.77940  -0.12700
C          C       0.43790   0.63840   0.65600
C          C       0.48420   0.67940   0.62700
C          C       0.41340   0.63270   0.75400
H          H       0.42390   0.65450   0.81390
C          C       0.55750   0.77880   0.24600
C          C       0.55720   0.77870   0.12000
C          C       0.55610   0.80980   0.06100
H          H       0.55610   0.83480   0.09930
C          C       0.55500   0.81030  -0.06800
H          H       0.55140   0.83360  -0.10500
O          O       0.29020   0.49540   0.69570
C          C       0.36160   0.56210   0.65600
C          C       0.32060   0.51580   0.62700
C          C       0.36730   0.58660   0.75400
H          H       0.34550   0.57610   0.81390
C          C       0.55610   0.74640   0.06100
H          H       0.55610   0.72140   0.09930
C          C       0.55500   0.74480  -0.06800
H          H       0.55140   0.71790  -0.10500
O          O       0.50460   0.79490   0.69570
H          H       0.52199   0.76099   0.52221
S          S       0.40750   0.81501   0.56050
O          O       0.29020   0.79490   0.69570
N          N       0.22060   0.77940  -0.12700
C          C       0.36160   0.79960   0.65600
C          C       0.32060   0.80490   0.62700
C          C       0.36730   0.78080   0.75400
H          H       0.34550   0.76950   0.81390
C          C       0.22120   0.77880   0.24600
C          C       0.22130   0.77860   0.12000
C          C       0.19020   0.74640   0.06100
H          H       0.16520   0.72140   0.09930
C          C       0.18970   0.74480  -0.06800
H          H       0.16640   0.71790  -0.10500
C          C       0.43790   0.79960   0.65600
C          C       0.48420   0.80490   0.62700
C          C       0.41340   0.78080   0.75400
H          H       0.42390   0.76950   0.81390
C          C       0.25360   0.80980   0.06100
H          H       0.27860   0.83480   0.09930
C          C       0.25520   0.81030  -0.06800
H          H       0.28210   0.83360  -0.10500
O          O       0.20510   0.70980   0.69570
H          H       0.23901   0.76099   0.52221
S          S       0.18499   0.59250   0.56050
O          O       0.20510   0.49540   0.69570
N          N       0.22060   0.44130  -0.12700
C          C       0.20040   0.56210   0.65600
C          C       0.19510   0.51580   0.62700
C          C       0.21920   0.58660   0.75400
H          H       0.23050   0.57610   0.81390
C          C       0.22120   0.44250   0.24600
C          C       0.22140   0.44280   0.12000
C          C       0.25360   0.44390   0.06100
H          H       0.27860   0.44390   0.09930
C          C       0.25520   0.44500  -0.06800
H          H       0.28210   0.44860  -0.10500
C          C       0.20040   0.63840   0.65600
C          C       0.19510   0.67940   0.62700
C          C       0.21920   0.63270   0.75400
H          H       0.23050   0.65450   0.81390
C          C       0.19020   0.44390   0.06100
H          H       0.16520   0.44390   0.09930
C          C       0.18970   0.44500  -0.06800
H          H       0.16640   0.44860  -0.10500
H          H       0.23901   0.47801   0.52221
