data_crystal

_cell_length_a    32.58340
_cell_length_b    32.58340
_cell_length_c    11.68660
_cell_angle_alpha 90.00000
_cell_angle_beta  90.00000
_cell_angle_gamma 120.00000

_symmetry_space_group_name_Hall 'P 1'
_symmetry_space_group_name_H-M  'P 1'

loop_
_symmetry_equiv_pos_as_xyz
 'x,y,z'

loop_
_atom_site_label
_atom_site_type_symbol
_atom_site_fract_x
_atom_site_fract_y
_atom_site_fract_z
Co         Co      0.61173   0.10958   0.23676
Co         Co      0.55439   0.10879   0.48431
N          N       0.55325   0.10650  -0.33400
S          S       0.74218   0.25782   0.35650
O          O       0.55569   0.11138   0.30780
N          N       0.67200   0.10780   0.16790
O          O       0.81730   0.09530   0.14730
O          O       0.78821   0.07390  -0.02650
O          O       0.65580   0.16817   0.31870
O          O       0.58760   0.10750   0.08000
C          C       0.74750   0.09530   0.10480
C          C       0.55340   0.10670   0.03510
C          C       0.78840   0.08750   0.07400
O          O       0.62430   0.16130   0.49180
C          C       0.65540   0.18190   0.41810
C          C       0.55240   0.10490  -0.09570
C          C       0.70320   0.25240   0.54870
H          H       0.68150   0.24240   0.60860
C          C       0.74920   0.11900   0.19850
H          H       0.77620   0.13170   0.24430
C          C       0.67280   0.08870   0.07220
H          H       0.64780   0.08010   0.02170
C          C       0.52080   0.10800  -0.27450
H          H       0.49700   0.11040  -0.31240
C          C       0.69670   0.22740   0.45370
C          C       0.70900   0.08000   0.03960
H          H       0.70620   0.06350  -0.02770
C          C       0.71150   0.12520   0.22990
H          H       0.71390   0.14210   0.29620
C          C       0.52000   0.10620  -0.15460
H          H       0.49480   0.10580  -0.11630
O          O       0.83183   0.34420   0.31870
C          C       0.81810   0.34460   0.41810
C          C       0.74760   0.29680   0.54870
H          H       0.75760   0.31850   0.60860
C          C       0.77260   0.30330   0.45370
O          O       0.83870   0.37570   0.49180
O          O       0.51990   0.10750   0.08000
C          C       0.58620   0.10620  -0.15460
H          H       0.61100   0.10580  -0.11630
C          C       0.58720   0.10800  -0.27450
H          H       0.61340   0.11040  -0.31240
Co         Co      0.55709  -0.16452   0.57009
N          N       0.55890  -0.10250   0.50120
O          O       0.57140   0.05540   0.48060
O          O       0.59280   0.04768   0.30680
C          C       0.57140  -0.01440   0.43810
C          C       0.57920   0.03430   0.40730
C          C       0.54770  -0.03640   0.53180
H          H       0.53500  -0.02210   0.57760
C          C       0.57800  -0.08260   0.40550
H          H       0.58660  -0.09900   0.35500
C          C       0.58670  -0.03770   0.37290
H          H       0.60320  -0.02400   0.30560
C          C       0.54150  -0.08040   0.56320
H          H       0.52460  -0.09490   0.62950
Co         Co      0.89042   0.38827   0.23676
Co         Co      0.49785   0.10958   0.23676
Co         Co      0.83118   0.05494  -0.09657
Co         Co      0.89121   0.44560   0.48431
Co         Co      0.88773   0.11227   0.15098
O          O       0.55529  -0.22236   0.64110
O          O       0.48400   0.05540   0.48060
O          O       0.61899  -0.12155   0.64010
O          O       0.49850  -0.17904   0.65200
O          O       0.55920  -0.18660   0.41330
O          O       0.53700   0.16130   0.49180
H          H       0.57329   0.14657   0.30843
Co         Co      0.89042   0.50215   0.23676
N          N       0.89350   0.44675  -0.33400
S          S       0.74218   0.48436   0.35650
O          O       0.88862   0.44431   0.30780
N          N       0.89220   0.56420   0.16790
O          O       0.90470   0.72210   0.14730
O          O       0.92610   0.71435  -0.02650
O          O       0.83183   0.48763   0.31870
O          O       0.89250   0.48010   0.08000
C          C       0.90470   0.65230   0.10480
C          C       0.89330   0.44670   0.03510
C          C       0.91250   0.70100   0.07400
O          O       0.83870   0.46300   0.49180
C          C       0.81810   0.47350   0.41810
C          C       0.89510   0.44750  -0.09570
C          C       0.74760   0.45080   0.54870
H          H       0.75760   0.43910   0.60860
C          C       0.88100   0.63030   0.19850
H          H       0.86830   0.64460   0.24430
C          C       0.91130   0.58410   0.07220
H          H       0.91990   0.56770   0.02170
C          C       0.89200   0.41280  -0.27450
H          H       0.88960   0.38660  -0.31240
C          C       0.77260   0.46930   0.45370
C          C       0.92000   0.62900   0.03960
H          H       0.93650   0.64270  -0.02770
C          C       0.87480   0.58630   0.22990
H          H       0.85790   0.57180   0.29620
C          C       0.89380   0.41380  -0.15460
H          H       0.89420   0.38900  -0.11630
O          O       0.65580   0.48763   0.31870
C          C       0.65540   0.47350   0.41810
C          C       0.70320   0.45080   0.54870
H          H       0.68150   0.43910   0.60860
C          C       0.69670   0.46930   0.45370
O          O       0.62430   0.46300   0.49180
O          O       0.89250   0.41240   0.08000
C          C       0.89380   0.48000  -0.15460
H          H       0.89420   0.50520  -0.11630
C          C       0.89200   0.47920  -0.27450
H          H       0.88960   0.50300  -0.31240
Co         Co      1.16452   0.72160   0.57009
N          N       1.10250   0.66130   0.50120
O          O       0.94460   0.51600   0.48060
O          O       0.95232   0.54512   0.30680
C          C       1.01440   0.58580   0.43810
C          C       0.96570   0.54490   0.40730
C          C       1.03640   0.58410   0.53180
H          H       1.02210   0.55710   0.57760
C          C       1.08260   0.66050   0.40550
H          H       1.09900   0.68550   0.35500
C          C       1.03770   0.62430   0.37290
H          H       1.02400   0.62710   0.30560
C          C       1.08040   0.62180   0.56320
H          H       1.09490   0.61940   0.62950
Co         Co      0.61173   0.50215   0.23676
Co         Co      0.94506   0.77625  -0.09657
Co         Co      0.55440   0.44561   0.48431
Co         Co      0.88773   0.77546   0.15098
O          O       1.22236   0.77764   0.64110
O          O       0.94460   0.42860   0.48060
O          O       1.12155   0.74053   0.64010
O          O       1.17904   0.67753   0.65200
O          O       1.18660   0.74570   0.41330
H          H       0.85343   0.42672   0.30843
Co         Co      0.49785   0.38827   0.23676
N          N       0.55325   0.44675  -0.33400
S          S       0.51564   0.25782   0.35650
O          O       0.55569   0.44431   0.30780
N          N       0.43580   0.32800   0.16790
O          O       0.27790   0.18270   0.14730
O          O       0.28565   0.21179  -0.02650
O          O       0.51237   0.34420   0.31870
O          O       0.51990   0.41240   0.08000
C          C       0.34770   0.25250   0.10480
C          C       0.55330   0.44660   0.03510
C          C       0.29900   0.21160   0.07400
O          O       0.53700   0.37570   0.49180
C          C       0.52650   0.34460   0.41810
C          C       0.55250   0.44760  -0.09570
C          C       0.54920   0.29680   0.54870
H          H       0.56090   0.31850   0.60860
C          C       0.36970   0.25080   0.19850
H          H       0.35540   0.22380   0.24430
C          C       0.41590   0.32720   0.07220
H          H       0.43230   0.35220   0.02170
C          C       0.58720   0.47920  -0.27450
H          H       0.61340   0.50300  -0.31240
C          C       0.53070   0.30330   0.45370
C          C       0.37100   0.29100   0.03960
H          H       0.35730   0.29380  -0.02770
C          C       0.41370   0.28850   0.22990
H          H       0.42820   0.28610   0.29620
C          C       0.58620   0.48000  -0.15460
H          H       0.61100   0.50520  -0.11630
O          O       0.51237   0.16817   0.31870
C          C       0.52650   0.18190   0.41810
C          C       0.54920   0.25240   0.54870
H          H       0.56090   0.24240   0.60860
C          C       0.53070   0.22740   0.45370
O          O       0.58760   0.48010   0.08000
C          C       0.52000   0.41380  -0.15460
H          H       0.49480   0.38900  -0.11630
C          C       0.52080   0.41280  -0.27450
H          H       0.49700   0.38660  -0.31240
Co         Co      0.27840   0.44291   0.57009
N          N       0.33870   0.44110   0.50120
O          O       0.48400   0.42860   0.48060
O          O       0.45488   0.40720   0.30680
C          C       0.41420   0.42860   0.43810
C          C       0.45510   0.42080   0.40730
C          C       0.41590   0.45230   0.53180
H          H       0.44290   0.46500   0.57760
C          C       0.33950   0.42200   0.40550
H          H       0.31450   0.41340   0.35500
C          C       0.37570   0.41330   0.37290
H          H       0.37290   0.39680   0.30560
C          C       0.37820   0.45850   0.56320
H          H       0.38060   0.47540   0.62950
Co         Co      0.22375   0.16882  -0.09657
Co         Co      0.22454   0.11227   0.15098
O          O       0.22236   0.44471   0.64110
O          O       0.57140   0.51600   0.48060
O          O       0.25947   0.38101   0.64010
O          O       0.32247   0.50150   0.65200
O          O       0.25430   0.44080   0.41330
H          H       0.57329   0.42672   0.30843
N          N       0.89220   0.32800   0.16790
O          O       0.90470   0.18270   0.14730
O          O       0.92610   0.21179  -0.02650
C          C       0.90470   0.25250   0.10480
C          C       0.91250   0.21160   0.07400
C          C       0.88100   0.25080   0.19850
H          H       0.86830   0.22380   0.24430
C          C       0.91130   0.32720   0.07220
H          H       0.91990   0.35220   0.02170
C          C       0.92000   0.29100   0.03960
H          H       0.93650   0.29380  -0.02770
C          C       0.87480   0.28850   0.22990
H          H       0.85790   0.28610   0.29620
Co         Co      1.16452   0.44291   0.57009
N          N       1.10250   0.44110   0.50120
O          O       0.95232   0.40720   0.30680
C          C       1.01440   0.42860   0.43810
C          C       0.96570   0.42080   0.40730
C          C       1.03640   0.45230   0.53180
H          H       1.02210   0.46500   0.57760
C          C       1.08260   0.42200   0.40550
H          H       1.09900   0.41340   0.35500
C          C       1.03770   0.41330   0.37290
H          H       1.02400   0.39680   0.30560
C          C       1.08040   0.45850   0.56320
H          H       1.09490   0.47540   0.62950
Co         Co      0.94506   0.16882  -0.09657
O          O       1.12155   0.38101   0.64010
O          O       1.17904   0.50150   0.65200
O          O       1.18660   0.44080   0.41330
N          N       0.43580   0.10780   0.16790
O          O       0.27790   0.09530   0.14730
O          O       0.28565   0.07390  -0.02650
C          C       0.34770   0.09530   0.10480
C          C       0.29900   0.08750   0.07400
C          C       0.36970   0.11900   0.19850
H          H       0.35540   0.13170   0.24430
C          C       0.41590   0.08870   0.07220
H          H       0.43230   0.08010   0.02170
C          C       0.37100   0.08000   0.03960
H          H       0.35730   0.06350  -0.02770
C          C       0.41370   0.12520   0.22990
H          H       0.42820   0.14210   0.29620
Co         Co      0.27840  -0.16452   0.57009
N          N       0.33870  -0.10250   0.50120
O          O       0.45488   0.04768   0.30680
C          C       0.41420  -0.01440   0.43810
C          C       0.45510   0.03430   0.40730
C          C       0.41590  -0.03640   0.53180
H          H       0.44290  -0.02210   0.57760
C          C       0.33950  -0.08260   0.40550
H          H       0.31450  -0.09900   0.35500
C          C       0.37570  -0.03770   0.37290
H          H       0.37290  -0.02400   0.30560
C          C       0.37820  -0.08040   0.56320
H          H       0.38060  -0.09490   0.62950
Co         Co      0.22375   0.05494  -0.09657
O          O       0.25947  -0.12155   0.64010
O          O       0.32247  -0.17904   0.65200
O          O       0.25430  -0.18660   0.41330
N          N       0.67200   0.56420   0.16790
O          O       0.81730   0.72210   0.14730
O          O       0.78821   0.71435  -0.02650
C          C       0.74750   0.65230   0.10480
C          C       0.78840   0.70100   0.07400
C          C       0.74920   0.63030   0.19850
H          H       0.77620   0.64460   0.24430
C          C       0.67280   0.58410   0.07220
H          H       0.64780   0.56770   0.02170
C          C       0.70900   0.62900   0.03960
H          H       0.70620   0.64270  -0.02770
C          C       0.71150   0.58630   0.22990
H          H       0.71390   0.57180   0.29620
Co         Co      0.55709   0.72160   0.57009
N          N       0.55890   0.66130   0.50120
O          O       0.59280   0.54512   0.30680
C          C       0.57140   0.58580   0.43810
C          C       0.57920   0.54490   0.40730
C          C       0.54770   0.58410   0.53180
H          H       0.53500   0.55710   0.57760
C          C       0.57800   0.66050   0.40550
H          H       0.58660   0.68550   0.35500
C          C       0.58670   0.62430   0.37290
H          H       0.60320   0.62710   0.30560
C          C       0.54150   0.62180   0.56320
H          H       0.52460   0.61940   0.62950
Co         Co      0.83118   0.77625  -0.09657
O          O       0.61899   0.74053   0.64010
O          O       0.49850   0.67753   0.65200
O          O       0.55920   0.74570   0.41330
Co         Co      0.22106   0.44212   0.81764
N          N       0.21992   0.43980  -0.00070
S          S       0.40885   0.59115   0.68980
C          C       0.22010   0.44000   0.36840
O          O       0.29100   0.49460   0.82510
C          C       0.32210   0.51520   0.75140
C          C       0.21910   0.43820   0.23760
C          C       0.36990   0.58570   0.88200
H          H       0.34820   0.57570   0.94190
C          C       0.18750   0.44130   0.05880
H          H       0.16370   0.44370   0.02090
C          C       0.36340   0.56070   0.78700
C          C       0.18670   0.43950   0.17870
H          H       0.16150   0.43910   0.21700
C          C       0.48480   0.67790   0.75140
C          C       0.41430   0.63010   0.88200
H          H       0.42430   0.65180   0.94190
C          C       0.43930   0.63660   0.78700
O          O       0.50540   0.70900   0.82510
C          C       0.25290   0.43950   0.17870
H          H       0.27770   0.43910   0.21700
C          C       0.25390   0.44130   0.05880
H          H       0.28010   0.44370   0.02090
N          N       0.22550   0.23090   0.83460
O          O       0.23810   0.38870   0.81390
C          C       0.23810   0.31890   0.77140
C          C       0.24590   0.36760   0.74060
C          C       0.21440   0.29690   0.86510
H          H       0.20170   0.31120   0.91090
C          C       0.24460   0.25080   0.73890
H          H       0.25320   0.23440   0.68840
C          C       0.25330   0.29570   0.70630
H          H       0.26980   0.30940   0.63900
C          C       0.20810   0.25300   0.89660
H          H       0.19120   0.23850   0.96290
Co         Co      0.55788   0.77894   0.81764
O          O       0.22195   0.11098   0.97450
O          O       0.15070   0.38870   0.81390
O          O       0.16516   0.15430   0.98540
O          O       0.22580   0.14680   0.74670
O          O       0.20370   0.49460   0.82510
H          H       0.23995   0.47990   0.64176
N          N       0.56020   0.78008  -0.00070
S          S       0.40885   0.81769   0.68980
C          C       0.56000   0.78000   0.36840
O          O       0.50540   0.79630   0.82510
C          C       0.48480   0.80680   0.75140
C          C       0.56180   0.78080   0.23760
C          C       0.41430   0.78410   0.88200
H          H       0.42430   0.77240   0.94190
C          C       0.55870   0.74610   0.05880
H          H       0.55630   0.71990   0.02090
C          C       0.43930   0.80260   0.78700
C          C       0.56050   0.74710   0.17870
H          H       0.56090   0.72230   0.21700
C          C       0.32210   0.80680   0.75140
C          C       0.36990   0.78410   0.88200
H          H       0.34820   0.77240   0.94190
C          C       0.36340   0.80260   0.78700
O          O       0.29100   0.79630   0.82510
C          C       0.56050   0.81330   0.17870
H          H       0.56090   0.83850   0.21700
C          C       0.55870   0.81250   0.05880
H          H       0.55630   0.83630   0.02090
N          N       0.76910   0.99470   0.83460
O          O       0.61130   0.84930   0.81390
C          C       0.68110   0.91910   0.77140
C          C       0.63240   0.87820   0.74060
C          C       0.70310   0.91740   0.86510
H          H       0.68880   0.89040   0.91090
C          C       0.74920   0.99390   0.73890
H          H       0.76560   1.01890   0.68840
C          C       0.70430   0.95770   0.70630
H          H       0.69060   0.96050   0.63900
C          C       0.74700   0.95520   0.89660
H          H       0.76150   0.95280   0.96290
Co         Co      0.22106   0.77894   0.81764
O          O       0.88902   1.11098   0.97450
O          O       0.61130   0.76190   0.81390
O          O       0.84570   1.01087   0.98540
O          O       0.85320   1.07910   0.74670
H          H       0.52010   0.76005   0.64176
N          N       0.21992   0.78008  -0.00070
S          S       0.18231   0.59115   0.68980
C          C       0.22000   0.77990   0.36840
O          O       0.20370   0.70900   0.82510
C          C       0.19320   0.67790   0.75140
C          C       0.21920   0.78090   0.23760
C          C       0.21590   0.63010   0.88200
H          H       0.22760   0.65180   0.94190
C          C       0.25390   0.81250   0.05880
H          H       0.28010   0.83630   0.02090
C          C       0.19740   0.63660   0.78700
C          C       0.25290   0.81330   0.17870
H          H       0.27770   0.83850   0.21700
C          C       0.19320   0.51520   0.75140
C          C       0.21590   0.58570   0.88200
H          H       0.22760   0.57570   0.94190
C          C       0.19740   0.56070   0.78700
C          C       0.18670   0.74710   0.17870
H          H       0.16150   0.72230   0.21700
C          C       0.18750   0.74610   0.05880
H          H       0.16370   0.71990   0.02090
N          N       0.00530   0.77450   0.83460
O          O       0.15070   0.76190   0.81390
C          C       0.08090   0.76190   0.77140
C          C       0.12180   0.75410   0.74060
C          C       0.08260   0.78560   0.86510
H          H       0.10960   0.79830   0.91090
C          C       0.00610   0.75540   0.73890
H          H      -0.01890   0.74680   0.68840
C          C       0.04230   0.74670   0.70630
H          H       0.03950   0.73020   0.63900
C          C       0.04480   0.79190   0.89660
H          H       0.04720   0.80880   0.96290
O          O      -0.11098   0.77805   0.97450
O          O       0.23810   0.84930   0.81390
O          O      -0.01087   0.83484   0.98540
O          O      -0.07910   0.77420   0.74670
H          H       0.23995   0.76005   0.64176
N          N       0.76910   0.77450   0.83460
C          C       0.68110   0.76190   0.77140
C          C       0.63240   0.75410   0.74060
C          C       0.70310   0.78560   0.86510
H          H       0.68880   0.79830   0.91090
C          C       0.74920   0.75540   0.73890
H          H       0.76560   0.74680   0.68840
C          C       0.70430   0.74670   0.70630
H          H       0.69060   0.73020   0.63900
C          C       0.74700   0.79190   0.89660
H          H       0.76150   0.80880   0.96290
O          O       0.84570   0.83484   0.98540
O          O       0.85320   0.77420   0.74670
N          N       0.00530   0.23090   0.83460
C          C       0.08090   0.31890   0.77140
C          C       0.12180   0.36760   0.74060
C          C       0.08260   0.29690   0.86510
H          H       0.10960   0.31120   0.91090
C          C       0.00610   0.25080   0.73890
H          H      -0.01890   0.23440   0.68840
C          C       0.04230   0.29570   0.70630
H          H       0.03950   0.30940   0.63900
C          C       0.04480   0.25300   0.89660
H          H       0.04720   0.23850   0.96290
O          O      -0.01087   0.15430   0.98540
O          O      -0.07910   0.14680   0.74670
N          N       0.22550   0.99470   0.83460
C          C       0.23810   0.91910   0.77140
C          C       0.24590   0.87820   0.74060
C          C       0.21440   0.91740   0.86510
H          H       0.20170   0.89040   0.91090
C          C       0.24460   0.99390   0.73890
H          H       0.25320   1.01890   0.68840
C          C       0.25330   0.95770   0.70630
H          H       0.26980   0.96050   0.63900
C          C       0.20810   0.95520   0.89660
H          H       0.19120   0.95280   0.96290
O          O       0.16516   1.01087   0.98540
O          O       0.22580   1.07910   0.74670
N          N       0.88658   0.77320   0.33270
S          S       1.07551   0.92449   1.02320
C          C       0.88670   0.77340   0.70180
O          O       0.95760   0.82800   1.15850
C          C       0.98870   0.84860   1.08480
C          C       0.88570   0.77160   0.57100
C          C       1.03650   0.91910   1.21540
H          H       1.01480   0.90910   1.27530
C          C       0.85410   0.77470   0.39220
H          H       0.83030   0.77710   0.35430
C          C       1.03000   0.89410   1.12040
C          C       0.85330   0.77290   0.51210
H          H       0.82810   0.77250   0.55040
C          C       1.15140   1.01130   1.08480
C          C       1.08090   0.96350   1.21540
H          H       1.09090   0.98520   1.27530
C          C       1.10590   0.97000   1.12040
O          O       1.17200   1.04240   1.15850
C          C       0.91950   0.77290   0.51210
H          H       0.94430   0.77250   0.55040
C          C       0.92050   0.77470   0.39220
H          H       0.94670   0.77710   0.35430
O          O       0.87030   0.82800   1.15850
H          H       0.90662   0.81324   0.97510
N          N       0.22680   0.11342   0.33270
S          S       0.07551   0.15103   1.02320
C          C       0.22660   0.11340   0.70180
O          O       0.17200   0.12970   1.15850
C          C       0.15140   0.14020   1.08480
C          C       0.22840   0.11420   0.57100
C          C       0.08090   0.11750   1.21540
H          H       0.09090   0.10580   1.27530
C          C       0.22530   0.07950   0.39220
H          H       0.22290   0.05330   0.35430
C          C       0.10590   0.13600   1.12040
C          C       0.22710   0.08050   0.51210
H          H       0.22750   0.05570   0.55040
C          C      -0.01130   0.14020   1.08480
C          C       0.03650   0.11750   1.21540
H          H       0.01480   0.10580   1.27530
C          C       0.03000   0.13600   1.12040
O          O      -0.04240   0.12970   1.15850
C          C       0.22710   0.14670   0.51210
H          H       0.22750   0.17190   0.55040
C          C       0.22530   0.14590   0.39220
H          H       0.22290   0.16970   0.35430
H          H       0.18676   0.09338   0.97510
N          N       0.88658   0.11342   0.33270
S          S       0.84897  -0.07551   1.02320
C          C       0.88660   0.11330   0.70180
O          O       0.87030   0.04240   1.15850
C          C       0.85980   0.01130   1.08480
C          C       0.88580   0.11430   0.57100
C          C       0.88250  -0.03650   1.21540
H          H       0.89420  -0.01480   1.27530
C          C       0.92050   0.14590   0.39220
H          H       0.94670   0.16970   0.35430
C          C       0.86400  -0.03000   1.12040
C          C       0.91950   0.14670   0.51210
H          H       0.94430   0.17190   0.55040
C          C       0.85980  -0.15140   1.08480
C          C       0.88250  -0.08090   1.21540
H          H       0.89420  -0.09090   1.27530
C          C       0.86400  -0.10590   1.12040
C          C       0.85330   0.08050   0.51210
H          H       0.82810   0.05570   0.55040
C          C       0.85410   0.07950   0.39220
H          H       0.83030   0.05330   0.35430
H          H       0.90662   0.09338   0.97510
