data_crystal

_cell_length_a    11.71100
_cell_length_b    15.61810
_cell_length_c    16.03620
_cell_angle_alpha 90.00000
_cell_angle_beta  90.20500
_cell_angle_gamma 90.00000

_symmetry_space_group_name_Hall 'P 1'
_symmetry_space_group_name_H-M  'P 1'
_symmetry_int_tables_number      1

loop_
_symmetry_equiv_pos_as_xyz
 'x,y,z'

loop_
_atom_site_label
_atom_site_type_symbol
_atom_site_fract_x
_atom_site_fract_y
_atom_site_fract_z
Zn         Zn      0.49996   0.50000   0.59185
Zn         Zn      0.50004   0.50000   0.40815
H          H       0.14090   0.82780   0.37600
H          H       0.24840   0.70360   0.62420
H          H       0.24780   0.70370   0.37440
H          H       0.13860   0.82740   0.62500
H          H       0.85910   0.82780   0.62400
H          H       0.75160   0.70360   0.37580
H          H       0.75220   0.70370   0.62560
H          H       0.86140   0.82740   0.37500
H          H       0.85910   0.17220   0.62400
H          H       0.75160   0.29640   0.37580
H          H       0.75220   0.29630   0.62560
H          H       0.86140   0.17260   0.37500
H          H       0.14090   0.17220   0.37600
H          H       0.24840   0.29640   0.62420
H          H       0.24780   0.29630   0.37440
H          H       0.13860   0.17260   0.62500
H          H       0.66520   0.50000   0.72320
H          H       0.33750   0.50000   0.74430
H          H       0.35310   0.50000   0.88840
H          H       0.69080   0.50000   0.86060
H          H       0.33480   0.50000   0.27680
H          H       0.66250   0.50000   0.25570
H          H       0.64690   0.50000   0.11160
H          H       0.30920   0.50000   0.13940
C          C       0.26490   0.69300   0.50070
C          C       0.06140   0.92130   0.50060
C          C       0.16170   0.80240   0.42630
C          C       0.22790   0.72890   0.57390
C          C       0.22800   0.72890   0.42480
C          C       0.12580   0.83910   0.50010
C          C       0.34590   0.61830   0.50070
C          C       0.16020   0.80290   0.57460
C          C       0.73510   0.69300   0.49930
C          C       0.93860   0.92130   0.49940
C          C       0.83830   0.80240   0.57370
C          C       0.77210   0.72890   0.42610
C          C       0.77200   0.72890   0.57520
C          C       0.87420   0.83910   0.49990
C          C       0.65410   0.61830   0.49930
C          C       0.83980   0.80290   0.42540
C          C       0.73510   0.30700   0.49930
C          C       0.93860   0.07870   0.49940
C          C       0.83830   0.19760   0.57370
C          C       0.77210   0.27110   0.42610
C          C       0.77200   0.27110   0.57520
C          C       0.87420   0.16090   0.49990
C          C       0.65410   0.38170   0.49930
C          C       0.83980   0.19710   0.42540
C          C       0.26490   0.30700   0.50070
C          C       0.06140   0.07870   0.50060
C          C       0.16170   0.19760   0.42630
C          C       0.22790   0.27110   0.57390
C          C       0.22800   0.27110   0.42480
C          C       0.12580   0.16090   0.50010
C          C       0.34590   0.38170   0.50070
C          C       0.16020   0.19710   0.57460
C          C       0.60020   0.50000   0.75630
C          C       0.41010   0.50000   0.76800
C          C       0.41880   0.50000   0.85600
C          C       0.52470   0.50000   0.89370
C          C       0.61680   0.50000   0.83940
C          C       0.39980   0.50000   0.24370
C          C       0.58990   0.50000   0.23200
C          C       0.58120   0.50000   0.14400
C          C       0.47530   0.50000   0.10630
C          C       0.38320   0.50000   0.16060
C          C       0.10340   0.00000   0.50330
C          C       0.89660   0.00000   0.49670
Br         Br      0.27925   0.00000   0.50022
Br         Br      0.72075   0.00000   0.49978
N          N       0.50020   0.50000   0.71690
N          N       0.54670   0.50000   0.98210
N          N       0.49980   0.50000   0.28310
N          N       0.45330   0.50000   0.01790
O          O       0.38230   0.59130   0.43000
O          O       0.38050   0.59030   0.57010
O          O       0.61770   0.59130   0.57000
O          O       0.61950   0.59030   0.42990
O          O       0.61770   0.40870   0.57000
O          O       0.61950   0.40970   0.42990
O          O       0.38230   0.40870   0.43000
O          O       0.38050   0.40970   0.57010
