data_crystal

_cell_length_a    21.14390
_cell_length_b    21.71140
_cell_length_c    21.90260
_cell_angle_alpha 89.98120
_cell_angle_beta  59.88690
_cell_angle_gamma 59.38690

_space_group_name_Hall 'P 1'
_space_group_name_H-M_alt 'P 1'

loop_
_symmetry_equiv_pos_as_xyz
 'x,y,z'

loop_
_atom_site_label
_atom_site_type_symbol
_atom_site_fract_x
_atom_site_fract_y
_atom_site_fract_z
Zn         Zn      0.06313   0.98146   0.86984
Zn         Zn      0.93200   0.97193   0.04074
Zn         Zn      0.92496   0.12683   0.01834
Zn         Zn      0.04748   0.95813   0.02297
O          O      -0.01376   0.02004  -0.02287
O          O       0.95200   0.90561   0.95858
C          C      -0.01457   0.89484   0.88965
O          O       0.02705   0.92049   0.84797
C          C      -0.02267   0.84436   0.85230
C          C       0.99567   0.83950   0.78380
C          C       0.99332   0.78815   0.74224
C          C       0.93728   0.81800   0.71762
C          C       0.93829   0.76906   0.67520
C          C      -0.00438   0.69029   0.65741
C          C       0.05136   0.65991   0.68200
C          C       0.04981   0.70910   0.72472
C          C      -0.00283   0.63760   0.61124
O          O       0.05330   0.61441   0.54077
O          O       0.94207   0.62141   0.64731
H          H      -0.04445   0.81292   0.88561
H          H       1.01575   0.87378   0.75348
H          H       0.89283   0.87939   0.73169
H          H       0.89504   0.79209   0.65585
H          H       0.09553   0.59846   0.66805
H          H       0.09300   0.68595   0.74410
O          O       0.93877   0.17086   0.93728
C          C      -0.01345   0.13885   0.86686
O          O       0.03919   0.06791   0.83091
C          C      -0.02179   0.19187   0.82349
C          C       0.04518   0.17329   0.75281
C          C       0.03514   0.22821   0.71233
C          C       0.07721   0.26436   0.70223
C          C       0.06511   0.31844   0.66652
C          C       0.01191   0.33514   0.64029
C          C       0.97159   0.29789   0.64849
C          C       0.98277   0.24463   0.68512
C          C      -0.00197   0.39338   0.60210
O          O       0.02561   0.36999   0.53514
O          O       0.95901   0.46079   0.64053
H          H       0.91271   0.24795   0.85578
H          H       0.11070   0.11703   0.72146
H          H       0.11848   0.25086   0.72285
H          H       0.09649   0.34764   0.65932
H          H       0.93186   0.31050   0.62630
H          H       0.95086   0.21593   0.69259
O          O       0.17868   0.90258   0.93894
C          C       0.22443   0.88836   0.86894
O          O       0.19327   0.91238   0.83059
C          C       0.32452   0.83898   0.82835
C          C       0.38126   0.79402   0.75646
C          C       0.48032   0.74476   0.71709
C          C       0.52825   0.66520   0.69409
C          C       0.62201   0.61894   0.65656
C          C       0.66702   0.65275   0.64265
C          C       0.61972   0.73210   0.66550
C          C       0.52616   0.77814   0.70260
C          C       0.76781   0.60401   0.60244
O          O       0.81547   0.56288   0.53470
O          O       0.79532   0.60838   0.64078
H          H       0.34656   0.84157   0.86348
H          H       0.35723   0.79167   0.72281
H          H       0.49239   0.63953   0.70550
H          H       0.65983   0.55705   0.63820
H          H       0.65573   0.75762   0.65461
H          H       0.48868   0.83997   0.72030
O          O       0.79670   0.16852   0.09664
C          C       0.76065   0.13406   0.12254
O          O       0.80085   0.06302   0.10783
C          C       0.66004   0.18523   0.17638
C          C       0.60784   0.16504   0.18189
C          C       0.50810   0.21806   0.23137
C          C       0.46046   0.23986   0.19897
C          C       0.36656   0.29316   0.24402
C          C       0.32059   0.32406   0.32157
C          C       0.36712   0.30083   0.35470
C          C       0.46110   0.24774   0.30942
C          C       0.22023   0.38492   0.37002
O          O       0.16952   0.36610   0.37889
O          O       0.19657   0.45063   0.39643
H          H       0.63348   0.24137   0.20822
H          H       0.63649   0.10841   0.14870
H          H       0.49680   0.21591   0.13848
H          H       0.32930   0.31079   0.21908
H          H       0.33035   0.32479   0.41532
H          H       0.49795   0.22974   0.33469
O          O       0.06638   0.87213   0.06898
C          C       0.99965   0.86906   0.11085
O          O       0.92680   0.91087   0.11543
C          C       1.01000   0.81611   0.15337
C          C       0.94018   0.81815   0.20887
C          C       0.95193   0.76641   0.25221
C          C       0.89942   0.79706   0.33088
C          C       0.91247   0.74890   0.37231
C          C       0.97722   0.67017   0.33489
C          C       0.02855   0.63895   0.25668
C          C       0.01605   0.68729   0.21528
C          C       0.99121   0.61835   0.37962
O          O       0.94861   0.58939   0.39667
O          O       0.04453   0.60859   0.39592
H          H       0.07958   0.77648   0.13628
H          H       0.87095   0.85886   0.22524
H          H       0.84904   0.85841   0.35967
H          H       0.87263   0.77246   0.43334
H          H       0.07811   0.57742   0.22821
H          H       0.05595   0.66344   0.15430
O          O       0.02525   0.03496   0.09757
C          C       1.00371   0.10176   0.10283
O          O       0.97290   0.14302   0.07009
C          C       1.01388   0.13625   0.15318
C          C      -0.00331   0.20524   0.15887
C          C       0.00142   0.24493   0.20926
C          C       0.04656   0.27926   0.18167
C          C       0.04610   0.32130   0.23020
C          C       1.00089   0.32849   0.30631
C          C       0.95757   0.29298   0.33406
C          C       0.95766   0.25143   0.28536
C          C       0.99735   0.37585   0.35871
O          O       0.97503   0.44258   0.35783
O          O       0.01569   0.35076   0.40443
H          H       1.03586   0.10089   0.18352
H          H      -0.02391   0.23716   0.12546
H          H       0.08139   0.27357   0.12243
H          H       0.07987   0.34908   0.20947
H          H       0.92386   0.29809   0.39326
H          H       0.92300   0.22446   0.30654
Zn         Zn      0.92181   0.55366   0.61090
Zn         Zn      0.07408   0.54934   0.45908
Zn         Zn      0.94618   0.51287   0.44755
Zn         Zn      0.03565   0.41579   0.45467
O          O       0.99484   0.51936   0.50353
