data_crystal
 
_cell_length_a    16.90770
_cell_length_b    16.90770
_cell_length_c    16.90770
_cell_angle_alpha 90.00000
_cell_angle_beta  90.00000
_cell_angle_gamma 90.00000
 
_symmetry_space_group_name_Hall 'P 1'
_symmetry_space_group_name_H-M  'P 1'
 
loop_
_symmetry_equiv_pos_as_xyz
 'x,y,z' 
 
loop_
_atom_site_label
_atom_site_type_symbol
_atom_site_fract_x
_atom_site_fract_y
_atom_site_fract_z
Co         Co      0.50000   0.75000   0.00000 
Co         Co      0.50000   0.25000   0.00000 
Co         Co     -0.00000   0.50000   0.75000 
Co         Co     -0.00000   0.50000   0.25000 
Co         Co      0.75000  -0.00000   0.50000 
Co         Co      0.25000  -0.00000   0.50000 
Co         Co      0.75000   0.50000   0.00000 
Co         Co      0.25000   0.50000   0.00000 
Co         Co      0.50000  -0.00000   0.75000 
Co         Co      0.50000  -0.00000   0.25000 
Co         Co     -0.00000   0.75000   0.50000 
Co         Co     -0.00000   0.25000   0.50000 
N          N       0.41090   0.68274   0.96516 
N          N       0.58910   0.31726   0.96516 
N          N       0.58910   0.68274   0.03484 
N          N       0.41090   0.31726   0.03484 
N          N       0.96516   0.41090   0.68274 
N          N       0.96516   0.58910   0.31726 
N          N       0.03484   0.58910   0.68274 
N          N       0.03484   0.41090   0.31726 
N          N       0.68274   0.96516   0.41090 
N          N       0.31726   0.96516   0.58910 
N          N       0.68274   0.03484   0.58910 
N          N       0.31726   0.03484   0.41090 
N          N       0.68274   0.41090   0.96516 
N          N       0.31726   0.58910   0.96516 
N          N       0.68274   0.58910   0.03484 
N          N       0.31726   0.41090   0.03484 
N          N       0.41090   0.96516   0.68274 
N          N       0.58910   0.96516   0.31726 
N          N       0.58910   0.03484   0.68274 
N          N       0.41090   0.03484   0.31726 
N          N       0.96516   0.68274   0.41090 
N          N       0.96516   0.31726   0.58910 
N          N       0.03484   0.68274   0.58910 
N          N       0.03484   0.31726   0.41090 
N          N       0.91090   0.18274   0.46516 
N          N       0.08910   0.81726   0.46516 
N          N       0.08910   0.18274   0.53484 
N          N       0.91090   0.81726   0.53484 
N          N       0.46516   0.91090   0.18274 
N          N       0.46516   0.08910   0.81726 
N          N       0.53484   0.08910   0.18274 
N          N       0.53484   0.91090   0.81726 
N          N       0.18274   0.46516   0.91090 
N          N       0.81726   0.46516   0.08910 
N          N       0.18274   0.53484   0.08910 
N          N       0.81726   0.53484   0.91090 
N          N       0.18274   0.91090   0.46516 
N          N       0.81726   0.08910   0.46516 
N          N       0.18274   0.08910   0.53484 
N          N       0.81726   0.91090   0.53484 
N          N       0.91090   0.46516   0.18274 
N          N       0.08910   0.46516   0.81726 
N          N       0.08910   0.53484   0.18274 
N          N       0.91090   0.53484   0.81726 
N          N       0.46516   0.18274   0.91090 
N          N       0.46516   0.81726   0.08910 
N          N       0.53484   0.18274   0.08910 
N          N       0.53484   0.81726   0.91090 
C          C       0.40292   0.59708   0.08553 
C          C       0.59708   0.40292   0.08553 
C          C       0.59708   0.59708   0.91447 
C          C       0.40292   0.40292   0.91447 
C          C       0.08553   0.40292   0.59708 
C          C       0.08553   0.59708   0.40292 
C          C       0.91447   0.59708   0.59708 
C          C       0.91447   0.40292   0.40292 
C          C       0.59708   0.08553   0.40292 
C          C       0.40292   0.08553   0.59708 
C          C       0.59708   0.91447   0.59708 
C          C       0.40292   0.91447   0.40292 
C          C       0.90292   0.09708   0.58553 
C          C       0.09708   0.90292   0.58553 
C          C       0.09708   0.09708   0.41447 
C          C       0.90292   0.90292   0.41447 
C          C       0.58553   0.90292   0.09708 
C          C       0.58553   0.09708   0.90292 
C          C       0.41447   0.09708   0.09708 
C          C       0.41447   0.90292   0.90292 
C          C       0.09708   0.58553   0.90292 
C          C       0.90292   0.58553   0.09708 
C          C       0.09708   0.41447   0.09708 
C          C       0.90292   0.41447   0.90292 
H          H       0.45890   0.58200   0.08360 
H          H       0.54110   0.41800   0.08360 
H          H       0.54110   0.58200   0.91640 
H          H       0.08360   0.45890   0.58200 
H          H       0.91640   0.54110   0.58200 
H          H       0.91640   0.45890   0.41800 
H          H       0.58200   0.08360   0.45890 
H          H       0.58200   0.91640   0.54110 
H          H       0.41800   0.45890   0.91640 
H          H       0.45890   0.08360   0.58200 
H          H       0.45890   0.91640   0.41800 
H          H       0.08360   0.58200   0.45890 
H          H       0.95890   0.08200   0.58360 
H          H       0.95890   0.91800   0.41640 
H          H       0.58360   0.95890   0.08200 
H          H       0.58360   0.04110   0.91800 
H          H       0.91800   0.58360   0.04110 
H          H       0.08200   0.95890   0.58360 
H          H       0.08200   0.04110   0.41640 
H          H       0.04110   0.58360   0.91800 
H          H       0.95890   0.41640   0.91800 
H          H       0.41640   0.08200   0.04110 
H          H       0.41640   0.91800   0.95890 
H          H       0.37120   0.55160   0.10230 
H          H       0.62880   0.44840   0.10230 
H          H       0.62880   0.55160   0.89770 
H          H       0.10230   0.37120   0.55160 
H          H       0.89770   0.62880   0.55160 
H          H       0.89770   0.37120   0.44840 
H          H       0.55160   0.10230   0.37120 
H          H       0.55160   0.89770   0.62880 
H          H       0.44840   0.37120   0.89770 
H          H       0.37120   0.10230   0.55160 
H          H       0.37120   0.89770   0.44840 
H          H       0.10230   0.55160   0.37120 
H          H       0.87120   0.05160   0.60230 
H          H       0.87120   0.94840   0.39770 
H          H       0.60230   0.87120   0.05160 
H          H       0.60230   0.12880   0.94840 
H          H       0.94840   0.60230   0.12880 
H          H       0.05160   0.39770   0.12880 
H          H       0.05160   0.87120   0.60230 
H          H       0.05160   0.12880   0.39770 
H          H       0.12880   0.60230   0.94840 
H          H       0.87120   0.39770   0.94840 
H          H       0.39770   0.05160   0.12880 
H          H       0.39770   0.94840   0.87120 
H          H       0.39590   0.64050   0.12330 
H          H       0.60410   0.35950   0.12330 
H          H       0.60410   0.64050   0.87670 
H          H       0.12330   0.39590   0.64050 
H          H       0.87670   0.60410   0.64050 
H          H       0.87670   0.39590   0.35950 
H          H       0.64050   0.12330   0.39590 
H          H       0.64050   0.87670   0.60410 
H          H       0.35950   0.39590   0.87670 
H          H       0.39590   0.12330   0.64050 
H          H       0.39590   0.87670   0.35950 
H          H       0.12330   0.64050   0.39590 
H          H       0.89590   0.14050   0.62330 
H          H       0.89590   0.85950   0.37670 
H          H       0.62330   0.89590   0.14050 
H          H       0.62330   0.10410   0.85950 
H          H       0.85950   0.62330   0.10410 
H          H       0.14050   0.37670   0.10410 
H          H       0.14050   0.89590   0.62330 
H          H       0.14050   0.10410   0.37670 
H          H       0.10410   0.62330   0.85950 
H          H       0.89590   0.37670   0.85950 
H          H       0.37670   0.14050   0.10410 
H          H       0.37670   0.85950   0.89590 
C          C       0.37639   0.62361   0.00430 
C          C       0.62361   0.37639   0.00430 
C          C       0.62361   0.62361   0.99570 
C          C       0.37639   0.37639   0.99570 
C          C       0.00430   0.37639   0.62361 
C          C       0.00430   0.62361   0.37639 
C          C       0.99570   0.62361   0.62361 
C          C       0.99570   0.37639   0.37639 
C          C       0.62361   0.00430   0.37639 
C          C       0.37639   0.00430   0.62361 
C          C       0.62361   0.99570   0.62361 
C          C       0.37639   0.99570   0.37639 
C          C       0.87639   0.12361   0.50430 
C          C       0.12361   0.87639   0.50430 
C          C       0.12361   0.12361   0.49570 
C          C       0.87639   0.87639   0.49570 
C          C       0.50430   0.87639   0.12361 
C          C       0.50430   0.12361   0.87639 
C          C       0.49570   0.12361   0.12361 
C          C       0.49570   0.87639   0.87639 
C          C       0.12361   0.50430   0.87639 
C          C       0.87639   0.50430   0.12361 
C          C       0.12361   0.49570   0.12361 
C          C       0.87639   0.49570   0.87639 
C          C       0.37118   0.68525   0.89362 
C          C       0.62882   0.31475   0.89362 
C          C       0.62882   0.68525   0.10638 
C          C       0.37118   0.31475   0.10638 
C          C       0.89362   0.37118   0.68525 
C          C       0.89362   0.62882   0.31475 
C          C       0.10638   0.62882   0.68525 
C          C       0.10638   0.37118   0.31475 
C          C       0.68525   0.89362   0.37118 
C          C       0.31475   0.89362   0.62882 
C          C       0.68525   0.10638   0.62882 
C          C       0.31475   0.10638   0.37118 
C          C       0.68525   0.37118   0.89362 
C          C       0.31475   0.62882   0.89362 
C          C       0.68525   0.62882   0.10638 
C          C       0.31475   0.37118   0.10638 
C          C       0.37118   0.89362   0.68525 
C          C       0.62882   0.89362   0.31475 
C          C       0.62882   0.10638   0.68525 
C          C       0.37118   0.10638   0.31475 
C          C       0.89362   0.68525   0.37118 
C          C       0.89362   0.31475   0.62882 
C          C       0.10638   0.68525   0.62882 
C          C       0.10638   0.31475   0.37118 
C          C       0.87118   0.18525   0.39362 
C          C       0.12882   0.81475   0.39362 
C          C       0.12882   0.18525   0.60638 
C          C       0.87118   0.81475   0.60638 
C          C       0.39362   0.87118   0.18525 
C          C       0.39362   0.12882   0.81475 
C          C       0.60638   0.12882   0.18525 
C          C       0.60638   0.87118   0.81475 
C          C       0.18525   0.39362   0.87118 
C          C       0.81475   0.39362   0.12882 
C          C       0.18525   0.60638   0.12882 
C          C       0.81475   0.60638   0.87118 
C          C       0.18525   0.87118   0.39362 
C          C       0.81475   0.12882   0.39362 
C          C       0.18525   0.12882   0.60638 
C          C       0.81475   0.87118   0.60638 
C          C       0.87118   0.39362   0.18525 
C          C       0.12882   0.39362   0.81475 
C          C       0.12882   0.60638   0.18525 
C          C       0.87118   0.60638   0.81475 
C          C       0.39362   0.18525   0.87118 
C          C       0.39362   0.81475   0.12882 
C          C       0.60638   0.18525   0.12882 
C          C       0.60638   0.81475   0.87118 
H          H       0.38190   0.72080   0.85150 
H          H       0.61810   0.27920   0.85150 
H          H       0.61810   0.72080   0.14850 
H          H       0.38190   0.27920   0.14850 
H          H       0.85150   0.38190   0.72080 
H          H       0.85150   0.61810   0.27920 
H          H       0.14850   0.61810   0.72080 
H          H       0.14850   0.38190   0.27920 
H          H       0.72080   0.85150   0.38190 
H          H       0.27920   0.85150   0.61810 
H          H       0.72080   0.14850   0.61810 
H          H       0.27920   0.14850   0.38190 
H          H       0.72080   0.38190   0.85150 
H          H       0.27920   0.61810   0.85150 
H          H       0.72080   0.61810   0.14850 
H          H       0.27920   0.38190   0.14850 
H          H       0.38190   0.85150   0.72080 
H          H       0.61810   0.85150   0.27920 
H          H       0.61810   0.14850   0.72080 
H          H       0.38190   0.14850   0.27920 
H          H       0.85150   0.72080   0.38190 
H          H       0.85150   0.27920   0.61810 
H          H       0.14850   0.72080   0.61810 
H          H       0.14850   0.27920   0.38190 
H          H       0.88190   0.22080   0.35150 
H          H       0.11810   0.77920   0.35150 
H          H       0.11810   0.22080   0.64850 
H          H       0.88190   0.77920   0.64850 
H          H       0.35150   0.88190   0.22080 
H          H       0.35150   0.11810   0.77920 
H          H       0.64850   0.11810   0.22080 
H          H       0.64850   0.88190   0.77920 
H          H       0.22080   0.35150   0.88190 
H          H       0.77920   0.35150   0.11810 
H          H       0.22080   0.64850   0.11810 
H          H       0.77920   0.64850   0.88190 
H          H       0.22080   0.88190   0.35150 
H          H       0.77920   0.11810   0.35150 
H          H       0.22080   0.11810   0.64850 
H          H       0.77920   0.88190   0.64850 
H          H       0.88190   0.35150   0.22080 
H          H       0.11810   0.35150   0.77920 
H          H       0.11810   0.64850   0.22080 
H          H       0.88190   0.64850   0.77920 
H          H       0.35150   0.22080   0.88190 
H          H       0.35150   0.77920   0.11810 
H          H       0.64850   0.22080   0.11810 
H          H       0.64850   0.77920   0.88190 
H          H       0.08200   0.41640   0.04110 
