data_crystal
 
_cell_length_a    24.67900
_cell_length_b    24.67900
_cell_length_c    17.51200
_cell_angle_alpha 90.00000
_cell_angle_beta  90.00000
_cell_angle_gamma 120.00000
 
_symmetry_space_group_name_Hall 'P 1'
_symmetry_space_group_name_H-M  'P 1'
 
loop_
_symmetry_equiv_pos_as_xyz
 'x,y,z' 
 
loop_
_atom_site_label
_atom_site_type_symbol
_atom_site_fract_x
_atom_site_fract_y
_atom_site_fract_z
Al         Al      0.41895   0.70946   0.00000 
Al         Al      0.29050   0.70946   0.00000 
Al         Al      0.29053   0.58107   0.00000 
O          O       0.51287   0.75643   0.00000 
O          O       0.24357   0.75643   0.00000 
O          O       0.24356   0.48712   0.00000 
O          O       0.42810   0.76682   0.92331 
O          O       0.23314   0.66127   0.92331 
O          O       0.33875   0.57190   0.92331 
O          O       0.42810   0.76682   0.07669 
O          O       0.23314   0.66127   0.07669 
O          O       0.33875   0.57190   0.07669 
O          O       0.23315   0.57190   0.92331 
O          O       0.33872   0.76682   0.92331 
O          O       0.42812   0.66127   0.92331 
O          O       0.23315   0.57190   0.07669 
O          O       0.33872   0.76682   0.07669 
O          O       0.42812   0.66127   0.07669 
O          O       0.33331   0.66669   0.00000 
C          C       0.66672   0.33332   0.57309 
C          C       0.66672   0.33332   0.42691 
H          H       0.66672   0.33332   0.62911 
H          H       0.66672   0.33332   0.37089 
C          C       0.63422   0.26847   0.54197 
C          C       0.73152   0.36575   0.54197 
C          C       0.63423   0.36575   0.54197 
C          C       0.63422   0.26847   0.45803 
C          C       0.73152   0.36575   0.45803 
C          C       0.63423   0.36575   0.45803 
C          C       0.54784   0.09573   0.58680 
C          C       0.90425   0.45212   0.58680 
C          C       0.54787   0.45212   0.58680 
C          C       0.54784   0.09573   0.41320 
C          C       0.90425   0.45212   0.41320 
C          C       0.54787   0.45212   0.41320 
C          C       0.41829   0.83658   0.84000 
C          C       0.16343   0.58173   0.84000 
C          C       0.41828   0.58168   0.84000 
C          C       0.41829   0.83658   0.16000 
C          C       0.16343   0.58173   0.16000 
C          C       0.41828   0.58168   0.16000 
C          C       0.57739   0.15473   0.54037 
C          C       0.84526   0.42264   0.54037 
C          C       0.57738   0.42264   0.54037 
C          C       0.57739   0.15473   0.45963 
C          C       0.84526   0.42264   0.45963 
C          C       0.57738   0.42264   0.45963 
C          C       0.39333   0.78666   0.90332 
C          C       0.21334   0.60666   0.90332 
C          C       0.39333   0.60666   0.90332 
C          C       0.39333   0.78666   0.09668 
C          C       0.21334   0.60666   0.09668 
C          C       0.39333   0.60666   0.09668 
C          C       0.60658   0.21312   0.57812 
C          C       0.78686   0.39345   0.57812 
C          C       0.60659   0.39345   0.57812 
C          C       0.60658   0.21312   0.42188 
C          C       0.78686   0.39345   0.42188 
C          C       0.60659   0.39345   0.42188 
H          H       0.60663   0.21322   0.63122 
H          H       0.78680   0.39340   0.63122 
H          H       0.60660   0.39340   0.63122 
H          H       0.60663   0.21322   0.36878 
H          H       0.78680   0.39340   0.36878 
H          H       0.60660   0.39340   0.36878 
C          C       0.46737   0.93475   0.73567 
C          C       0.06526   0.53264   0.73567 
C          C       0.46736   0.53260   0.73567 
C          C       0.46737   0.93475   0.26433 
C          C       0.06526   0.53264   0.26433 
C          C       0.46736   0.53260   0.26433 
C          C       0.49561   0.99122   0.68353 
C          C       0.00879   0.50438   0.68353 
C          C       0.49560   0.50438   0.68353 
C          C       0.49561   0.99122   0.31647 
C          C       0.00879   0.50438   0.31647 
C          C       0.49560   0.50438   0.31647 
C          C       0.47904   0.86236   0.81401 
C          C       0.13763   0.61668   0.81401 
C          C       0.38335   0.52099   0.81401 
C          C       0.47904   0.86236   0.18599 
C          C       0.13763   0.61668   0.18599 
C          C       0.38335   0.52099   0.18599 
C          C       0.13764   0.52099   0.81401 
C          C       0.38333   0.86236   0.81401 
C          C       0.47905   0.61668   0.81401 
C          C       0.13764   0.52099   0.18599 
C          C       0.38333   0.86236   0.18599 
C          C       0.47905   0.61668   0.18599 
H          H       0.50381   0.84660   0.83212 
H          H       0.15339   0.65720   0.83212 
H          H       0.34279   0.49620   0.83212 
H          H       0.50381   0.84660   0.16788 
H          H       0.15339   0.65720   0.16788 
H          H       0.34279   0.49620   0.16788 
H          H       0.15340   0.49620   0.83212 
H          H       0.34278   0.84660   0.83212 
H          H       0.50381   0.65720   0.83212 
H          H       0.15340   0.49620   0.16788 
H          H       0.34278   0.84660   0.16788 
H          H       0.50381   0.65720   0.16788 
C          C       0.50373   0.91037   0.76256 
C          C       0.08963   0.59338   0.76256 
C          C       0.40664   0.49624   0.76256 
C          C       0.50373   0.91037   0.23744 
C          C       0.08963   0.59338   0.23744 
C          C       0.40664   0.49624   0.23744 
C          C       0.08961   0.49624   0.76256 
C          C       0.40664   0.91037   0.76256 
C          C       0.50375   0.59338   0.76256 
C          C       0.08961   0.49624   0.23744 
C          C       0.40664   0.91037   0.23744 
C          C       0.50375   0.59338   0.23744 
H          H       0.54471   0.92670   0.74560 
H          H       0.07329   0.61799   0.74560 
H          H       0.38199   0.45530   0.74560 
H          H       0.54471   0.92670   0.25440 
H          H       0.07329   0.61799   0.25440 
H          H       0.38199   0.45530   0.25440 
H          H       0.07331   0.45530   0.74560 
H          H       0.38198   0.92670   0.74560 
H          H       0.54470   0.61799   0.74560 
H          H       0.07331   0.45530   0.25440 
H          H       0.38198   0.92670   0.25440 
H          H       0.54470   0.61799   0.25440 
C          C       0.58559   0.08824   0.64145 
C          C       0.50264   0.41441   0.64145 
C          C       0.58559   0.08824   0.35855 
C          C       0.91177   0.41441   0.64145 
C          C       0.50265   0.08824   0.64145 
C          C       0.91177   0.41441   0.35855 
C          C       0.50265   0.08824   0.35855 
C          C       0.58561   0.49736   0.35855 
H          H       0.62581   0.12029   0.65292 
H          H       0.49450   0.37422   0.65292 
H          H       0.62581   0.12029   0.34708 
H          H       0.87972   0.37422   0.65292 
H          H       0.49448   0.12029   0.65292 
H          H       0.87972   0.37422   0.34708 
H          H       0.49448   0.12029   0.34708 
H          H       0.62582   0.50551   0.34708 
C          C       0.95652   0.51355   0.57886 
C          C       0.95652   0.51355   0.42114 
C          C       0.48644   0.44295   0.42114 
C          C       0.55703   0.51355   0.57886 
H          H       0.95753   0.53671   0.53638 
H          H       0.95753   0.53671   0.46362 
H          H       0.46330   0.42082   0.46362 
H          H       0.57919   0.53671   0.53638 
C          C       0.55914   0.02934   0.67788 
C          C       0.47021   0.44089   0.67788 
C          C       0.55914   0.02934   0.32212 
C          C       0.97068   0.44089   0.67788 
C          C       0.47020   0.02934   0.67788 
C          C       0.97068   0.44089   0.32212 
C          C       0.47020   0.02934   0.32212 
C          C       0.55911   0.52979   0.32212 
H          H       0.58539   0.01619   0.69849 
H          H       0.43081   0.41460   0.69849 
H          H       0.58539   0.01619   0.30151 
H          H       0.98379   0.41460   0.69849 
H          H       0.43080   0.01619   0.69849 
H          H       0.98379   0.41460   0.30151 
H          H       0.43080   0.01619   0.30151 
H          H       0.58537   0.56919   0.30151 
C          C       0.00356   0.54004   0.62711 
C          C       0.00356   0.54004   0.37289 
C          C       0.45996   0.46349   0.37289 
C          C       0.53648   0.54004   0.62711 
H          H       0.03279   0.58238   0.62312 
H          H       0.03279   0.58238   0.37688 
H          H       0.41758   0.45039   0.37688 
H          H       0.54959   0.58238   0.62312 
H          H       0.55217   0.75643   0.00000 
H          H       0.51999   0.79686   0.01719 
H          H       0.28286   0.48712   0.00000 
H          H       0.21267   0.45151   0.02895 
H          H       0.22362   0.78469   0.00000 
