data_crystal
 
_cell_length_a    41.5262
_cell_length_b    41.5262
_cell_length_c    17.4916
_cell_angle_alpha 90.0
_cell_angle_beta  90.0
_cell_angle_gamma 90.0
 
_symmetry_space_group_name_Hall 'P 1'
_symmetry_space_group_name_H-M  'P 1'
 
loop_
_symmetry_equiv_pos_as_xyz
 'x,y,z' 
 
loop_
_atom_site_label
_atom_site_type_symbol
_atom_site_fract_x
_atom_site_fract_y
_atom_site_fract_z
_atom_site_charge
Zn         Zn      0.40926   0.47975   0.75206   1.3169610000
Zn         Zn      0.59274   0.52227   0.25160   1.2567950000
Zn         Zn      0.52164   0.93018   0.74890   1.3011960000
Zn         Zn      0.47826   0.06955   0.25117   1.2952250000
Zn         Zn      0.06948   0.59134   0.75066   1.3007390000
Zn         Zn      0.93100   0.40900   0.25100   1.3073810000
Zn         Zn      0.37187   0.40219   0.66001   1.2857810000
Zn         Zn      0.63430   0.60160   0.34343   1.2230430000
Zn         Zn      0.59801   0.96983   0.65985   1.2906010000
Zn         Zn      0.40230   0.03017   0.34049   1.2778340000
Zn         Zn      0.03045   0.62814   0.65972   1.2760440000
Zn         Zn      0.97061   0.37224   0.34005   1.2740900000
Zn         Zn      0.62967   0.59768   0.16003   1.2206170000
Zn         Zn      0.37247   0.40319   0.84007   1.2631760000
Zn         Zn      0.40217   0.03033   0.15991   1.2966420000
Zn         Zn      0.59804   0.96976   0.84016   1.2815760000
Zn         Zn      0.97092   0.37240   0.15954   1.2752760000
Zn         Zn      0.03001   0.62801   0.84008   1.2820870000
Zn         Zn      0.32219   0.42738   0.75156   1.2377070000
Zn         Zn      0.67975   0.57290   0.24688   1.1765010000
Zn         Zn      0.57334   0.89491   0.75162   1.2653620000
Zn         Zn      0.42676   0.10510   0.25164   1.2668150000
Zn         Zn      0.10503   0.67856   0.74825   1.2674300000
Zn         Zn      0.89647   0.32217   0.24917   1.2395520000
O          O       0.36948   0.42857   0.74991  -1.5420620000
O          O       0.63325   0.57313   0.25130  -1.4290200000
O          O       0.57275   0.94110   0.75006  -1.5594860000
O          O       0.42726   0.05893   0.25027  -1.5581010000
O          O       0.05897   0.63176   0.74994  -1.5533070000
O          O       0.94244   0.36934   0.24995  -1.5390950000
O          O       0.44087   0.48930   0.66217  -0.6087000000
O          O       0.55734   0.51244   0.33500  -0.6055940000
O          O       0.51064   0.95157   0.66164  -0.6116700000
O          O       0.48945   0.04843   0.33849  -0.6124090000
O          O       0.04727   0.55901   0.66295  -0.5991560000
O          O       0.95318   0.44095   0.33853  -0.6152910000
O          O       0.56075   0.51055   0.16197  -0.5839550000
O          O       0.44098   0.48973   0.84099  -0.6288760000
O          O       0.48925   0.04842   0.16223  -0.5992340000
O          O       0.51074   0.95153   0.83770  -0.6028380000
O          O       0.95307   0.44089   0.16251  -0.6053580000
O          O       0.04693   0.55908   0.83780  -0.6094670000
O          O       0.29377   0.40627   0.65855  -0.5861800000
O          O       0.71010   0.59034   0.33737  -0.5512030000
O          O       0.59391   0.88748   0.65770  -0.6027580000
O          O       0.40631   0.11278   0.34521  -0.6046610000
O          O       0.11281   0.70646   0.65493  -0.5984090000
O          O       0.88919   0.29373   0.34203  -0.5875210000
O          O       0.70820   0.59368   0.15327  -0.5704710000
O          O       0.29385   0.40645   0.84461  -0.5919830000
O          O       0.40617   0.11254   0.15828  -0.6006390000
O          O       0.59364   0.88722   0.84459  -0.6027130000
O          O       0.88910   0.29357   0.15704  -0.5859730000
O          O       0.11100   0.70644   0.84167  -0.6051610000
O          O       0.33000   0.38906   0.59247  -0.6062790000
O          O       0.68502   0.62365   0.38364  -0.5611730000
O          O       0.61104   0.94083   0.59203  -0.6047980000
O          O       0.38887   0.05890   0.40844  -0.6061240000
O          O       0.05900   0.67007   0.59164  -0.6016490000
O          O       0.94248   0.32993   0.40757  -0.6018690000
O          O       0.67159   0.61100   0.09136  -0.5627360000
O          O       0.33018   0.38902   0.90794  -0.5928760000
O          O       0.38896   0.05908   0.09245  -0.6147040000
O          O       0.61111   0.94113   0.90827  -0.5998360000
O          O       0.94263   0.32997   0.09189  -0.5987500000
O          O       0.05763   0.67022   0.90783  -0.6124000000
O          O       0.37168   0.35656   0.68308  -0.5872250000
O          O       0.63551   0.64603   0.30402  -0.6196890000
O          O       0.64353   0.01519   0.68646  -0.5956780000
O          O       0.35750   0.98427   0.31669  -0.5818450000
O          O       0.98548   0.62844   0.68332  -0.5785730000
O          O       0.01550   0.37160   0.31338  -0.5750550000
O          O       0.63008   0.64399   0.17483  -0.5614950000
O          O       0.37160   0.35755   0.81308  -0.5737700000
O          O       0.35767   0.98450   0.18664  -0.5985360000
O          O       0.64378   0.01535   0.81663  -0.5848210000
O          O       0.01581   0.37159   0.18333  -0.5733130000
O          O       0.98432   0.62675   0.81328  -0.5747120000
O          O       0.41657   0.43395   0.59993  -0.6023060000
O          O       0.59374   0.56227   0.40852  -0.6503450000
O          O       0.56625   0.98264   0.60052  -0.6149790000
O          O       0.43395   0.01739   0.39984  -0.6059250000
O          O       0.01730   0.58374   0.59996  -0.6079670000
O          O       0.98424   0.41668   0.39974  -0.6140590000
O          O       0.58507   0.56585   0.10034  -0.6004850000
O          O       0.41671   0.43394   0.90014  -0.6132140000
O          O       0.43392   0.01751   0.10066  -0.6080280000
O          O       0.56610   0.98251   0.89916  -0.6122640000
O          O       0.98427   0.41678   0.10009  -0.6157210000
O          O       0.01580   0.58334   0.89983  -0.6091670000
O          O       0.32994   0.47753   0.74985  -0.5705990000
O          O       0.67166   0.52254   0.24514  -0.5448090000
O          O       0.52279   0.85253   0.75026  -0.5712470000
O          O       0.47717   0.14743   0.24995  -0.5700340000
O          O       0.14729   0.67037   0.75050  -0.5818700000
O          O       0.85407   0.32989   0.24987  -0.5734650000
O          O       0.39245   0.51548   0.75050  -0.6097630000
O          O       0.60907   0.48595   0.25091  -0.5790800000
O          O       0.48563   0.87789   0.74920  -0.5975420000
O          O       0.51413   0.12183   0.25026  -0.5918020000
O          O       0.12180   0.60773   0.74994  -0.6134490000
O          O       0.87857   0.39240   0.25024  -0.6082580000
C          C       0.44033   0.46802   0.60924   0.5245600000
C          C       0.56378   0.53262   0.39431   0.5864300000
C          C       0.53216   0.97259   0.60926   0.5089890000
C          C       0.46803   0.02745   0.39104   0.4995050000
C          C       0.02699   0.55956   0.60962   0.5039350000
C          C       0.97404   0.44058   0.39095   0.5186910000
C          C       0.56100   0.53182   0.10963   0.4626970000
C          C       0.44079   0.46809   0.89241   0.5211170000
C          C       0.46796   0.02754   0.10966   0.5060000000
C          C       0.53206   0.97243   0.89020   0.5111060000
C          C       0.97390   0.44057   0.10945   0.5186960000
C          C       0.02604   0.55945   0.89074   0.5017060000
C          C       0.47129   0.48500   0.55242   0.1492860000
C          C       0.53270   0.51916   0.45223   0.0719730000
C          C       0.51568   0.98678   0.55277   0.1694090000
C          C       0.48458   0.01334   0.44752   0.1786380000
C          C       0.01330   0.52884   0.55307   0.1637590000
C          C       0.98780   0.47127   0.44753   0.1576860000
C          C       0.52996   0.51523   0.05344   0.2128420000
C          C       0.47170   0.48438   0.94863   0.1597410000
C          C       0.48451   0.01335   0.05289   0.1560070000
C          C       0.51550   0.98661   0.94702   0.1563410000
C          C       0.98740   0.47122   0.05281   0.1491110000
C          C       0.01242   0.52877   0.94727   0.1759440000
C          C       0.47333   0.46553   0.48938  -0.2160070000
C          C       0.53045   0.53921   0.51590  -0.1651850000
C          C       0.53729   0.00990   0.49312  -0.2140820000
C          C       0.46297   0.99024   0.50719  -0.2187560000
C          C       0.99088   0.52748   0.49260  -0.2095350000
C          C       0.01024   0.47265   0.50798  -0.2109380000
C          C       0.52822   0.53695   0.99459  -0.2384250000
C          C       0.47346   0.46264   0.00745  -0.2089070000
C          C       0.46288   0.99026   0.99338  -0.2057690000
C          C       0.53712   0.00969   0.00654  -0.2082470000
C          C       0.01000   0.47287   0.99180  -0.2053190000
C          C       0.98981   0.52712   0.00827  -0.2221220000
C          C       0.49941   0.52142   0.56368  -0.2115340000
C          C       0.50348   0.48284   0.44025  -0.1720520000
C          C       0.47845   0.97703   0.55954  -0.2175800000
C          C       0.52181   0.02311   0.44076  -0.2216690000
C          C       0.02293   0.50135   0.56063  -0.2146910000
C          C       0.97814   0.49875   0.44002  -0.2136680000
C          C       0.50240   0.47797   0.05949  -0.2374700000
C          C       0.49930   0.52164   0.94257  -0.2091070000
C          C       0.52167   0.02301   0.05930  -0.2113400000
C          C       0.47833   0.97693   0.94063  -0.2123380000
C          C       0.97736   0.49845   0.06081  -0.2033660000
C          C       0.02246   0.50154   0.93927  -0.2193410000
C          C       0.30290   0.39493   0.59889   0.4888230000
C          C       0.70683   0.61063   0.38806   0.4916600000
C          C       0.60529   0.90786   0.59815   0.5006480000
C          C       0.39486   0.09193   0.40403   0.4906190000
C          C       0.09199   0.69711   0.59622   0.4862110000
C          C       0.90945   0.30288   0.40157   0.4816180000
C          C       0.69859   0.60500   0.09480   0.4504710000
C          C       0.30317   0.39501   0.90339   0.4688830000
C          C       0.39484   0.09208   0.09881   0.5001160000
C          C       0.60511   0.90809   0.90350   0.4839140000
C          C       0.90962   0.30292   0.09740   0.4760430000
C          C       0.09067   0.69728   0.90149   0.5053670000
C          C       0.28009   0.38835   0.52958   0.1931940000
C          C       0.72964   0.61829   0.45790   0.1378950000
C          C       0.61211   0.89157   0.52858   0.1823960000
C          C       0.38833   0.10797   0.47426   0.2020610000
C          C       0.10804   0.71970   0.52633   0.1976190000
C          C       0.89292   0.28017   0.47125   0.2002720000
C          C       0.72055   0.61147   0.02344   0.2068410000
C          C       0.28069   0.38854   0.97356   0.2150770000
C          C       0.38823   0.10839   0.02956   0.1918550000
C          C       0.61165   0.89211   0.97324   0.2078050000
C          C       0.89321   0.28037   0.02754   0.2054480000
C          C       0.10722   0.72008   0.97101   0.1898220000
C          C       0.25443   0.40055   0.52639  -0.2663160000
C          C       0.74775   0.59823   0.47076  -0.2421410000
C          C       0.60032   0.85374   0.52504  -0.2548580000
C          C       0.40041   0.14584   0.47806  -0.2634460000
C          C       0.14590   0.74545   0.52244  -0.2589250000
C          C       0.85500   0.25461   0.47485  -0.2650590000
C          C       0.74613   0.59926   0.01723  -0.2694800000
C          C       0.25501   0.40069   0.97780  -0.2693800000
C          C       0.40053   0.14631   0.02619  -0.2643820000
C          C       0.59971   0.85428   0.97662  -0.2728020000
C          C       0.85533   0.25463   0.02464  -0.2715890000
C          C       0.14515   0.74568   0.97373  -0.2674930000
C          C       0.23516   0.39677   0.45939  -0.1324420000
C          C       0.76508   0.60125   0.54005  -0.1068540000
C          C       0.60437   0.83821   0.45785  -0.1279470000
C          C       0.39652   0.16132   0.54539  -0.1321470000
C          C       0.16138   0.76472   0.45519  -0.1354290000
C          C       0.83921   0.23549   0.54217  -0.1312510000
C          C       0.76484   0.60328   0.94883  -0.1239020000
C          C       0.23591   0.39699   0.04544  -0.1281690000
C          C       0.39665   0.16189   0.95933  -0.1323410000
C          C       0.60367   0.83886   0.04357  -0.1246130000
C          C       0.83954   0.23551   0.95742  -0.1285400000
C          C       0.16105   0.76498   0.04074  -0.1332610000
C          C       0.24051   0.38018   0.39431   0.0800900000
C          C       0.76466   0.62423   0.59841   0.0531340000
C          C       0.62081   0.86004   0.39272   0.0706110000
C          C       0.37993   0.13937   0.61028   0.0762600000
C          C       0.13943   0.75928   0.39059   0.0793780000
C          C       0.86089   0.24087   0.60723   0.0758430000
C          C       0.75929   0.62030   0.88507   0.0693650000
C          C       0.24145   0.38050   0.10998   0.0709740000
C          C       0.37983   0.13998   0.89456   0.0786600000
C          C       0.62019   0.86083   0.10843   0.0699970000
C          C       0.86117   0.24103   0.89170   0.0768220000
C          C       0.13947   0.75975   0.10638   0.0818510000
C          C       0.26543   0.36692   0.39918  -0.1510370000
C          C       0.74788   0.64547   0.58379  -0.1281200000
C          C       0.63375   0.89821   0.39802  -0.1486580000
C          C       0.36696   0.10121   0.60497  -0.1522670000
C          C       0.10127   0.73419   0.39606  -0.1543360000
C          C       0.89911   0.26573   0.60199  -0.1508910000
C          C       0.73406   0.63309   0.89262  -0.1453660000
C          C       0.26654   0.36746   0.10425  -0.1495020000
C          C       0.36647   0.10174   0.89964  -0.1527280000
C          C       0.63298   0.89895   0.10355  -0.1456680000
C          C       0.89936   0.26612   0.89615  -0.1520410000
C          C       0.10123   0.73487   0.10205  -0.1513290000
C          C       0.28527   0.37128   0.46547  -0.2569990000
C          C       0.73079   0.64274   0.51422  -0.2393710000
C          C       0.62914   0.91372   0.46449  -0.2520840000
C          C       0.37142   0.08572   0.53827  -0.2602270000
C          C       0.08579   0.71433   0.46265  -0.2578850000
C          C       0.91489   0.28543   0.53539  -0.2595170000
C          C       0.71470   0.62844   0.96037  -0.2591990000
C          C       0.28623   0.37175   0.03728  -0.2663840000
C          C       0.37094   0.08618   0.96574  -0.2548200000
C          C       0.62846   0.91438   0.03725  -0.2640390000
C          C       0.91515   0.28583   0.96270  -0.2594480000
C          C       0.08534   0.71497   0.03576  -0.2562120000
C          C       0.22156   0.37761   0.32178   0.0662730000
C          C       0.78141   0.62548   0.67320   0.0607640000
C          C       0.62349   0.84365   0.31970   0.0693250000
C          C       0.37712   0.15597   0.68278   0.0651300000
C          C       0.15602   0.77852   0.31815   0.0667630000
C          C       0.84419   0.22185   0.67989   0.0674160000
C          C       0.77900   0.62391   0.81239   0.0564790000
C          C       0.22216   0.37771   0.18255   0.0723330000
C          C       0.37718   0.15645   0.82212   0.0661990000
C          C       0.62324   0.84428   0.18035   0.0687650000
C          C       0.84438   0.22192   0.81927   0.0653740000
C          C       0.15626   0.77881   0.17884   0.0621400000
C          C       0.23921   0.37957   0.25229  -0.2091380000
C          C       0.76329   0.62402   0.74180  -0.1964360000
C          C       0.62134   0.85932   0.25067  -0.2048550000
C          C       0.37899   0.14076   0.75255  -0.2046180000
C          C       0.14063   0.76140   0.24840  -0.2037130000
C          C       0.85975   0.23918   0.74945  -0.2044920000
C          C       0.18653   0.37432   0.32048  -0.2264080000
C          C       0.81549   0.62680   0.67588  -0.2045790000
C          C       0.62705   0.81203   0.31722  -0.2190640000
C          C       0.37380   0.18771   0.68363  -0.2202020000
C          C       0.18790   0.81347   0.31734  -0.2214280000
C          C       0.81228   0.18689   0.68123  -0.2239660000
C          C       0.81360   0.62613   0.81278  -0.2082420000
C          C       0.18710   0.37427   0.18331  -0.2239430000
C          C       0.37404   0.18831   0.82087  -0.2247180000
C          C       0.62697   0.81278   0.17999  -0.2216820000
C          C       0.81252   0.18692   0.81846  -0.2223770000
C          C       0.18829   0.81369   0.18012  -0.2236180000
C          C       0.16880   0.37298   0.25166   0.0705150000
C          C       0.83236   0.62731   0.74523   0.0470440000
C          C       0.62853   0.79579   0.24777   0.0568930000
C          C       0.37267   0.20477   0.75208   0.0691720000
C          C       0.20496   0.83150   0.24892   0.0687380000
C          C       0.79558   0.16893   0.75000   0.0689220000
C          C       0.13239   0.37100   0.25079   0.1192710000
C          C       0.86838   0.62852   0.74658   0.1278550000
C          C       0.63110   0.76161   0.24567   0.1386120000
C          C       0.37081   0.23933   0.75143   0.1174570000
C          C       0.23971   0.86775   0.24963   0.1200320000
C          C       0.76101   0.13250   0.75032   0.1191000000
C          C       0.11511   0.37059   0.18171  -0.1964570000
C          C       0.88486   0.62733   0.81558  -0.1999270000
C          C       0.63158   0.74478   0.17610  -0.2000560000
C          C       0.37010   0.25698   0.81959  -0.1887690000
C          C       0.25724   0.88600   0.18143  -0.1967430000
C          C       0.74351   0.11490   0.81907  -0.1937890000
C          C       0.88720   0.63020   0.67845  -0.1920880000
C          C       0.11414   0.37052   0.31894  -0.1962820000
C          C       0.37074   0.25650   0.68244  -0.1960660000
C          C       0.63221   0.74403   0.31315  -0.2237380000
C          C       0.74372   0.11447   0.68192  -0.1929610000
C          C       0.25715   0.88491   0.31858  -0.1927360000
C          C       0.08180   0.37038   0.18055  -0.2349590000
C          C       0.91810   0.62737   0.81657  -0.2337210000
C          C       0.63243   0.71196   0.17393  -0.2219470000
C          C       0.37000   0.29019   0.81899  -0.2471100000
C          C       0.29058   0.91916   0.18192  -0.2365180000
C          C       0.71041   0.08150   0.81961  -0.2462790000
C          C       0.92033   0.63009   0.67895  -0.2345250000
C          C       0.08082   0.37032   0.31824  -0.2339110000
C          C       0.37058   0.28965   0.68137  -0.2407230000
C          C       0.63330   0.71134   0.31135  -0.1834030000
C          C       0.71058   0.08109   0.68199  -0.2433410000
C          C       0.29044   0.91811   0.31955  -0.2440690000
C          C       0.06439   0.37050   0.24895   0.2165800000
C          C       0.93608   0.62851   0.74811   0.2124750000
C          C       0.63313   0.69468   0.24173   0.1584580000
C          C       0.37049   0.30709   0.74975   0.2320210000
C          C       0.30770   0.93553   0.25108   0.2218290000
C          C       0.69339   0.06427   0.75095   0.2299320000
C          C       0.37126   0.34301   0.74865   0.4225890000
C          C       0.63297   0.65900   0.24000   0.4865870000
C          C       0.65758   0.02895   0.75135   0.4352250000
C          C       0.34359   0.97072   0.25158   0.4396930000
C          C       0.97123   0.62789   0.74838   0.4289020000
C          C       0.02927   0.37123   0.24839   0.4243400000
C          C       0.35919   0.50915   0.74993   0.4698840000
C          C       0.64202   0.49139   0.24810   0.4208360000
C          C       0.49143   0.85060   0.74885   0.4613770000
C          C       0.50849   0.14920   0.24988   0.4547970000
C          C       0.14910   0.64083   0.75169   0.4752820000
C          C       0.85163   0.35909   0.25017   0.4547140000
C          C       0.35410   0.54185   0.74942   0.1757050000
C          C       0.64655   0.45832   0.24832   0.2081590000
C          C       0.45848   0.81292   0.74676   0.1742110000
C          C       0.54150   0.18678   0.24939   0.1760200000
C          C       0.18673   0.64560   0.75511   0.1762970000
C          C       0.81382   0.35392   0.25047   0.1968990000
C          C       0.68177   0.46273   0.23800  -0.2433420000
C          C       0.46257   0.78204   0.75845  -0.2310590000
C          C       0.53722   0.21777   0.24226  -0.2212060000
C          C       0.21720   0.68060   0.76952  -0.2360150000
C          C       0.78305   0.31852   0.24223  -0.2418790000
C          C       0.31909   0.53737   0.73625  -0.2394620000
C          C       0.68662   0.43223   0.23782  -0.1789840000
C          C       0.43190   0.74674   0.75812  -0.1736170000
C          C       0.56789   0.25304   0.24173  -0.2076070000
C          C       0.25255   0.68548   0.77227  -0.1698580000
C          C       0.74766   0.31360   0.24193  -0.1920310000
C          C       0.31420   0.56787   0.73533  -0.1654650000
C          C       0.34374   0.60368   0.74985   0.0914100000
C          C       0.65675   0.39627   0.24947   0.0959950000
C          C       0.39623   0.74084   0.74404   0.0898070000
C          C       0.60391   0.25886   0.24943   0.1360290000
C          C       0.25893   0.65593   0.75849   0.0924360000
C          C       0.74150   0.34357   0.25121   0.1229360000
C          C       0.37865   0.60763   0.76392  -0.1802610000
C          C       0.62159   0.39240   0.26044  -0.1864900000
C          C       0.60763   0.22734   0.25687  -0.2163840000
C          C       0.39272   0.77215   0.73098  -0.1815540000
C          C       0.77279   0.37890   0.26012  -0.2063580000
C          C       0.22797   0.62095   0.74404  -0.1845160000
C          C       0.38397   0.57736   0.76258  -0.2225050000
C          C       0.61641   0.42276   0.25914  -0.2302380000
C          C       0.57708   0.19190   0.25632  -0.2097120000
C          C       0.42318   0.80765   0.73332  -0.2189310000
C          C       0.80833   0.38414   0.25909  -0.2209410000
C          C       0.19240   0.61566   0.74338  -0.2208810000
C          C       0.33821   0.63597   0.75036   0.1089670000
C          C       0.66225   0.36389   0.25001   0.1077110000
C          C       0.36377   0.70303   0.74560   0.1126530000
C          C       0.63644   0.29669   0.24984   0.0848020000
C          C       0.29681   0.66155   0.75644   0.1122430000
C          C       0.70363   0.33811   0.25114   0.0910190000
C          C       0.30280   0.63142   0.75869  -0.2625270000
C          C       0.69779   0.36835   0.25109  -0.2441860000
C          C       0.36822   0.67193   0.74250  -0.2612060000
C          C       0.63205   0.32781   0.24916  -0.2376080000
C          C       0.32775   0.69714   0.75116  -0.2614380000
C          C       0.67251   0.30254   0.25083  -0.2283430000
H          H       0.45139   0.43711   0.47968   0.1758260000
H          H       0.56617   0.01715   0.48890   0.1824240000
H          H       0.43409   0.98298   0.51140   0.1829260000
H          H       0.98380   0.54921   0.48805   0.1808570000
H          H       0.01734   0.45093   0.51252   0.1828470000
H          H       0.54988   0.56586   0.99080   0.1887340000
H          H       0.45182   0.43372   0.01135   0.1820250000
H          H       0.43405   0.98315   0.98972   0.1792280000
H          H       0.56595   0.01679   0.01020   0.1807050000
H          H       0.01745   0.45140   0.98672   0.1811790000
H          H       0.98237   0.54860   0.01337   0.1848150000
H          H       0.49663   0.53586   0.61305   0.1750180000
H          H       0.50558   0.46831   0.39035   0.1754550000
H          H       0.46217   0.95904   0.60640   0.1864870000
H          H       0.53809   0.04109   0.39390   0.1873510000
H          H       0.04039   0.50310   0.60827   0.1814110000
H          H       0.96064   0.49699   0.39247   0.1835860000
H          H       0.50420   0.46151   0.10560   0.1882690000
H          H       0.49751   0.53812   0.89647   0.1855760000
H          H       0.53787   0.04099   0.10613   0.1803520000
H          H       0.46214   0.95894   0.89381   0.1811340000
H          H       0.95975   0.49653   0.10875   0.1789940000
H          H       0.04007   0.50346   0.89135   0.1834480000
H          H       0.25068   0.41383   0.57664   0.1886110000
H          H       0.74689   0.57946   0.42635   0.1783600000
H          H       0.58711   0.83670   0.57518   0.1862970000
H          H       0.41367   0.16288   0.42796   0.1886590000
H          H       0.16291   0.74926   0.57235   0.1870230000
H          H       0.83814   0.25082   0.42467   0.1866240000
H          H       0.75037   0.58588   0.06636   0.1862170000
H          H       0.25113   0.41387   0.92789   0.1892480000
H          H       0.41400   0.16333   0.07616   0.1891070000
H          H       0.58656   0.83723   0.92652   0.1931980000
H          H       0.83851   0.25070   0.07535   0.1892350000
H          H       0.16191   0.74936   0.92305   0.1898190000
H          H       0.21651   0.40789   0.45646   0.1385310000
H          H       0.77792   0.58450   0.55072   0.1306850000
H          H       0.59358   0.80845   0.45492   0.1342450000
H          H       0.40753   0.19109   0.54869   0.1389700000
H          H       0.19115   0.78344   0.45169   0.1397360000
H          H       0.80940   0.21693   0.54529   0.1392810000
H          H       0.78344   0.59214   0.94397   0.1361440000
H          H       0.21721   0.40805   0.04925   0.1378990000
H          H       0.40788   0.19171   0.95629   0.1393260000
H          H       0.59281   0.80910   0.04663   0.1345920000
H          H       0.80975   0.21679   0.95492   0.1380870000
H          H       0.19087   0.78356   0.04314   0.1392660000
H          H       0.26905   0.35285   0.35016   0.1450280000
H          H       0.74845   0.66435   0.62766   0.1394620000
H          H       0.64777   0.91591   0.34913   0.1440560000
H          H       0.35301   0.08351   0.65391   0.1463460000
H          H       0.08359   0.73044   0.34735   0.1470450000
H          H       0.91663   0.26943   0.65096   0.1452480000
H          H       0.72993   0.64724   0.84474   0.1452780000
H          H       0.27038   0.35360   0.15301   0.1471320000
H          H       0.35222   0.08406   0.85092   0.1444910000
H          H       0.64687   0.91667   0.15246   0.1453560000
H          H       0.91686   0.26998   0.84662   0.1463640000
H          H       0.08379   0.73129   0.15150   0.1451240000
H          H       0.30508   0.36161   0.46883   0.1902500000
H          H       0.71752   0.65897   0.50312   0.1715300000
H          H       0.63858   0.94319   0.46797   0.1866740000
H          H       0.36192   0.05625   0.53451   0.1891510000
H          H       0.05633   0.69439   0.46661   0.1895280000
H          H       0.94441   0.30520   0.53180   0.1905050000
H          H       0.69481   0.63797   0.96587   0.1837360000
H          H       0.30615   0.36224   0.03301   0.1910960000
H          H       0.36119   0.05666   0.96917   0.1890220000
H          H       0.63786   0.94383   0.03376   0.1896970000
H          H       0.94463   0.30575   0.96571   0.1898080000
H          H       0.05582   0.69518   0.03289   0.1903050000
H          H       0.26734   0.38434   0.25252   0.1424740000
H          H       0.73584   0.62105   0.73970   0.1418750000
H          H       0.61640   0.88259   0.25178   0.1428840000
H          H       0.38366   0.11731   0.75274   0.1432970000
H          H       0.11707   0.73333   0.24820   0.1409360000
H          H       0.88328   0.26726   0.74926   0.1412220000
H          H       0.17290   0.37245   0.37486   0.1413180000
H          H       0.82898   0.62789   0.62175   0.1387140000
H          H       0.62904   0.80023   0.37115   0.1405610000
H          H       0.37181   0.19899   0.62905   0.1391610000
H          H       0.19929   0.82680   0.37194   0.1374650000
H          H       0.80061   0.17348   0.62684   0.1403980000
H          H       0.82612   0.62727   0.86783   0.1349800000
H          H       0.17390   0.37230   0.12869   0.1400370000
H          H       0.37237   0.20013   0.87529   0.1396980000
H          H       0.62900   0.80166   0.12497   0.1418990000
H          H       0.80108   0.17348   0.87302   0.1395050000
H          H       0.20011   0.82712   0.12574   0.1419830000
H          H       0.12793   0.37070   0.12732   0.1614100000
H          H       0.87148   0.62616   0.86990   0.1638760000
H          H       0.63100   0.75729   0.12206   0.1606870000
H          H       0.36982   0.24477   0.87460   0.1605910000
H          H       0.24482   0.87409   0.12649   0.1599420000
H          H       0.75574   0.12753   0.87368   0.1614310000
H          H       0.87582   0.63154   0.62355   0.1568060000
H          H       0.12618   0.37057   0.37395   0.1610620000
H          H       0.37107   0.24397   0.62801   0.1609330000
H          H       0.63201   0.75579   0.36865   0.1676450000
H          H       0.75616   0.12671   0.62707   0.1599970000
H          H       0.24473   0.87208   0.37303   0.1619110000
H          H       0.06883   0.37033   0.12670   0.1809300000
H          H       0.93057   0.62634   0.87030   0.1802760000
H          H       0.63242   0.69911   0.11962   0.1808430000
H          H       0.36972   0.30368   0.87220   0.1825420000
H          H       0.30398   0.93288   0.12870   0.1845600000
H          H       0.69709   0.06829   0.87327   0.1857760000
H          H       0.93454   0.63116   0.62583   0.1824930000
H          H       0.06706   0.37022   0.37135   0.1808290000
H          H       0.37075   0.30271   0.62750   0.1855700000
H          H       0.63384   0.69799   0.36438   0.1624000000
H          H       0.69739   0.06757   0.62858   0.1848630000
H          H       0.30371   0.93098   0.37335   0.1838750000
H          H       0.70510   0.49055   0.22975   0.1824920000
H          H       0.49015   0.78640   0.76882   0.1772980000
H          H       0.50941   0.21356   0.23690   0.1753400000
H          H       0.21251   0.70374   0.77881   0.1799370000
H          H       0.78751   0.29509   0.23559   0.1807440000
H          H       0.29602   0.50961   0.72597   0.1808090000
H          H       0.71428   0.43662   0.22785   0.1582610000
H          H       0.43574   0.72334   0.77036   0.1518980000
H          H       0.56348   0.27645   0.23493   0.1691530000
H          H       0.27560   0.71285   0.78553   0.1502520000
H          H       0.72443   0.28575   0.23378   0.1659920000
H          H       0.28697   0.56385   0.72224   0.1488110000
H          H       0.40197   0.63483   0.77730   0.1497450000
H          H       0.59769   0.36519   0.27087   0.1602490000
H          H       0.63488   0.23033   0.26364   0.1702800000
H          H       0.36572   0.76883   0.71842   0.1524120000
H          H       0.76954   0.40297   0.26841   0.1649550000
H          H       0.23176   0.59748   0.73164   0.1524540000
H          H       0.41114   0.58057   0.77267   0.1824110000
H          H       0.58902   0.41945   0.26711   0.1772510000
H          H       0.58028   0.16766   0.26175   0.1759230000
H          H       0.42018   0.83181   0.72422   0.1794710000
H          H       0.83236   0.41166   0.26545   0.1819850000
H          H       0.16857   0.58844   0.73243   0.1824650000
H          H       0.27943   0.60380   0.76833   0.1496640000
H          H       0.72157   0.39618   0.25195   0.1287970000
H          H       0.39564   0.67574   0.73254   0.1496910000
H          H       0.32371   0.72094   0.75136   0.1477860000
H          H       0.67647   0.27872   0.25143   0.1156560000
H          H       0.60433   0.32393   0.24767   0.1219530000
H          H       0.55139   0.56655   0.52499   0.1586560000
