data_crystal

_cell_length_a    9.84700
_cell_length_b    11.32400
_cell_length_c    14.62300
_cell_angle_alpha 91.15000
_cell_angle_beta  90.00000
_cell_angle_gamma 90.00000

_space_group_name_Hall 'P 1'
_space_group_name_H-M_alt 'P 1'

loop_
_symmetry_equiv_pos_as_xyz
 'x,y,z'

loop_
_atom_site_label
_atom_site_type_symbol
_atom_site_fract_x
_atom_site_fract_y
_atom_site_fract_z
Mg         Mg      0.50000   0.00000   0.50000
Mg         Mg      0.00000   0.50000   0.00000
Mg         Mg      0.50000   0.50000   0.50000
Mg         Mg      0.00000   0.00000   0.00000
Mg         Mg      0.57832   0.74371   0.36530
Mg         Mg      0.07832   0.75629   0.13470
Mg         Mg      0.42168   0.25629   0.63470
Mg         Mg      0.92168   0.24371   0.86530
Mg         Mg      0.38799   0.76038   0.19024
Mg         Mg      0.88799   0.73962   0.30976
Mg         Mg      0.61201   0.23962   0.80976
Mg         Mg      0.11201   0.26038   0.69024
H          H       0.46270   0.02330   0.23810
H          H       0.96270   0.47670   0.26190
H          H       0.53730   0.97670   0.76190
H          H       0.03730   0.52330   0.73810
H          H       0.87900   0.93530   0.45920
H          H       0.37900   0.56470   0.04080
H          H       0.12100   0.06470   0.54080
H          H       0.62100   0.43530   0.95920
H          H       0.79360   0.50880   0.48480
H          H       0.29360   0.99120   0.01520
H          H       0.20640   0.49120   0.51520
H          H       0.70640   0.00880   0.98480
H          H       0.73780   0.63900   0.13220
H          H       0.23780   0.86100   0.36780
H          H       0.26220   0.36100   0.86780
H          H       0.76220   0.13900   0.63220
H          H       0.34430   0.80070   0.56980
H          H       0.84430   0.69930   0.93020
H          H       0.65570   0.19930   0.43020
H          H       0.15570   0.30070   0.06980
H          H       0.30650   0.52090   0.27160
H          H       0.80650   0.97910   0.22840
H          H       0.69350   0.47910   0.72840
H          H       0.19350   0.02090   0.77160
C          C       0.48367   0.98051   0.28985
C          C       0.98367   0.51949   0.21015
C          C       0.51633   0.01949   0.71015
C          C       0.01633   0.48051   0.78985
C          C       0.78695   0.92146   0.44978
C          C       0.28695   0.57854   0.05022
C          C       0.21305   0.07854   0.55022
C          C       0.71305   0.42146   0.94978
C          C       0.77534   0.56946   0.44467
C          C       0.27534   0.93054   0.05533
C          C       0.22466   0.43054   0.55533
C          C       0.72466   0.06946   0.94467
C          C       0.66934   0.66979   0.16953
C          C       0.16934   0.83021   0.33047
C          C       0.33066   0.33021   0.83047
C          C       0.83066   0.16979   0.66953
C          C       0.39919   0.75793   0.52931
C          C       0.89919   0.74207   0.97069
C          C       0.60081   0.24207   0.47069
C          C       0.10081   0.25793   0.02931
C          C       0.36787   0.54842   0.31546
C          C       0.86787   0.95158   0.18454
C          C       0.63213   0.45158   0.68454
C          C       0.13213   0.04842   0.81546
O          O       0.49307   0.86892   0.27995
O          O       0.99307   0.63108   0.22005
O          O       0.50693   0.13108   0.72005
O          O       0.00693   0.36892   0.77995
O          O       0.49995   0.03721   0.36239
O          O       0.99995   0.46279   0.13761
O          O       0.50005   0.96279   0.63761
O          O       0.00005   0.53721   0.86239
O          O       0.70696   0.98001   0.49729
O          O       0.20696   0.51999   0.00271
O          O       0.29304   0.01999   0.50271
O          O       0.79304   0.48001   0.99729
O          O       0.47380   0.81702   0.47491
O          O       0.97380   0.68298   0.02509
O          O       0.52620   0.18298   0.52509
O          O       0.02620   0.31702   0.97491
O          O       0.39289   0.48250   0.37925
O          O       0.89289   0.01750   0.12075
O          O       0.60711   0.51750   0.62075
O          O       0.10711   0.98250   0.87925
O          O       0.87328   0.61156   0.40343
O          O       0.37328   0.88844   0.09657
O          O       0.12672   0.38844   0.59657
O          O       0.62672   0.11156   0.90343
O          O       0.55678   0.68521   0.13388
O          O       0.05678   0.81479   0.36612
O          O       0.44322   0.31479   0.86612
O          O       0.94322   0.18521   0.63388
O          O       0.39395   0.64958   0.53265
O          O       0.89395   0.85042   0.96735
O          O       0.60605   0.35042   0.46735
O          O       0.10605   0.14958   0.03265
O          O       0.41792   0.65064   0.30373
O          O       0.91792   0.84936   0.19627
O          O       0.58208   0.34936   0.69627
O          O       0.08208   0.15064   0.80373
O          O       0.75524   0.84338   0.38873
O          O       0.25524   0.65662   0.11127
O          O       0.24476   0.15662   0.61127
O          O       0.74476   0.34338   0.88873
O          O       0.65166   0.60158   0.43729
O          O       0.15166   0.89842   0.06271
O          O       0.34834   0.39842   0.56271
O          O       0.84834   0.10158   0.93729
O          O       0.69984   0.69248   0.25335
O          O       0.19984   0.80752   0.24665
O          O       0.30016   0.30752   0.74665
O          O       0.80016   0.19248   0.75335
