data_crystal

_cell_length_a    7.54660
_cell_length_b    13.77160
_cell_length_c    24.74100
_cell_angle_alpha 90.00000
_cell_angle_beta  90.00000
_cell_angle_gamma 90.00000

_space_group_name_Hall 'P 1'
_space_group_name_H-M_alt 'P 1'

loop_
_symmetry_equiv_pos_as_xyz
 'x,y,z'

loop_
_atom_site_label
_atom_site_type_symbol
_atom_site_fract_x
_atom_site_fract_y
_atom_site_fract_z
Mg         Mg      0.85169   0.54145   0.82862
Mg         Mg      0.14831   0.45855   0.32862
Mg         Mg      0.14831   0.04145   0.82862
Mg         Mg      0.85169   0.95855   0.32862
Mg         Mg      0.47920   0.58077   0.61277
Mg         Mg      0.52080   0.41923   0.11277
Mg         Mg      0.52080   0.08077   0.61277
Mg         Mg      0.47920   0.91923   0.11277
Mg         Mg      0.18207   0.65747   0.87529
Mg         Mg      0.81793   0.34253   0.37529
Mg         Mg      0.81793   0.15747   0.87529
Mg         Mg      0.18207   0.84253   0.37529
Mg         Mg      0.51507   0.66637   0.79507
Mg         Mg      0.48493   0.33363   0.29507
Mg         Mg      0.48493   0.16637   0.79507
Mg         Mg      0.51507   0.83363   0.29507
Mg         Mg      0.18597   0.40958   0.03654
Mg         Mg      0.81403   0.59042   0.53654
Mg         Mg      0.81403   0.90958   0.03654
Mg         Mg      0.18597   0.09042   0.53654
Mg         Mg      0.14772   0.79243   0.07759
Mg         Mg      0.85228   0.20757   0.57759
Mg         Mg      0.85228   0.29243   0.07759
Mg         Mg      0.14772   0.70757   0.57759
H          H       0.27470   0.50040   0.74520
H          H       0.72530   0.49960   0.24520
H          H       0.72530   0.00040   0.74520
H          H       0.27470   0.99960   0.24520
H          H       0.93640   0.81830   0.81450
H          H       0.06360   0.18170   0.31450
H          H       0.06360   0.31830   0.81450
H          H       0.93640   0.68170   0.31450
H          H       0.94030   0.43210   0.93360
H          H       0.05970   0.56790   0.43360
H          H       0.05970   0.93210   0.93360
H          H       0.94030   0.06790   0.43360
H          H       0.55330   0.37880   0.81790
H          H       0.44670   0.62120   0.31790
H          H       0.44670   0.87880   0.81790
H          H       0.55330   0.12120   0.31790
H          H       0.61250   0.55610   0.93670
H          H       0.38750   0.44390   0.43670
H          H       0.38750   0.05610   0.93670
H          H       0.61250   0.94390   0.43670
H          H       0.78660   0.48510   0.70780
H          H       0.21340   0.51490   0.20780
H          H       0.21340   0.98510   0.70780
H          H       0.78660   0.01490   0.20780
H          H       0.86890   0.72650   0.95480
H          H       0.13110   0.27350   0.45480
H          H       0.13110   0.22650   0.95480
H          H       0.86890   0.77350   0.45480
H          H       0.72690   0.75280   0.66260
H          H       0.27310   0.24720   0.16260
H          H       0.27310   0.25280   0.66260
H          H       0.72690   0.74720   0.16260
H          H       0.39450   0.70080   0.47310
H          H       0.60550   0.29920   0.97310
H          H       0.60550   0.20080   0.47310
H          H       0.39450   0.79920   0.97310
H          H       0.05520   0.43230   0.59560
H          H       0.94480   0.56770   0.09560
H          H       0.94480   0.93230   0.59560
H          H       0.05520   0.06770   0.09560
H          H       0.54270   0.36460   0.57910
H          H       0.45730   0.63540   0.07910
H          H       0.45730   0.86460   0.57910
H          H       0.54270   0.13540   0.07910
H          H       0.21210   0.76810   0.69750
H          H       0.78790   0.23190   0.19750
H          H       0.78790   0.26810   0.69750
H          H       0.21210   0.73190   0.19750
C          C       0.20970   0.52400   0.77433
C          C       0.79030   0.47600   0.27433
C          C       0.79030   0.02400   0.77433
C          C       0.20970   0.97600   0.27433
C          C       0.87410   0.76010   0.81235
C          C       0.12590   0.23990   0.31235
C          C       0.12590   0.26010   0.81235
C          C       0.87410   0.73990   0.31235
C          C       0.01470   0.48580   0.93530
C          C       0.98530   0.51420   0.43530
C          C       0.98530   0.98580   0.93530
C          C       0.01470   0.01420   0.43530
C          C       0.65230   0.34940   0.83319
C          C       0.34770   0.65060   0.33319
C          C       0.34770   0.84940   0.83319
C          C       0.65230   0.15060   0.33319
C          C       0.54760   0.58640   0.90953
C          C       0.45240   0.41360   0.40953
C          C       0.45240   0.08640   0.90953
C          C       0.54760   0.91360   0.40953
C          C       0.68550   0.52000   0.71704
C          C       0.31450   0.48000   0.21704
C          C       0.31450   0.02000   0.71704
C          C       0.68550   0.98000   0.21704
C          C       0.97640   0.75040   0.96750
C          C       0.02360   0.24960   0.46750
C          C       0.02360   0.25040   0.96750
C          C       0.97640   0.74960   0.46750
C          C       0.79010   0.72600   0.63399
C          C       0.20990   0.27400   0.13399
C          C       0.20990   0.22600   0.63399
C          C       0.79010   0.77400   0.13399
C          C       0.45830   0.66850   0.49970
C          C       0.54170   0.33150   0.99970
C          C       0.54170   0.16850   0.49970
C          C       0.45830   0.83150   0.99970
C          C       0.12110   0.48930   0.59640
C          C       0.87890   0.51070   0.09640
C          C       0.87890   0.98930   0.59640
C          C       0.12110   0.01070   0.09640
C          C       0.64800   0.39690   0.57148
C          C       0.35200   0.60310   0.07148
C          C       0.35200   0.89690   0.57148
C          C       0.64800   0.10310   0.07148
C          C       0.30970   0.72910   0.69000
C          C       0.69030   0.27090   0.19000
C          C       0.69030   0.22910   0.69000
C          C       0.30970   0.77090   0.19000
O          O       0.05220   0.49690   0.77864
O          O       0.94780   0.50310   0.27864
O          O       0.94780   0.99690   0.77864
O          O       0.05220   0.00310   0.27864
O          O       0.28770   0.58145   0.80686
O          O       0.71230   0.41855   0.30686
O          O       0.71230   0.08145   0.80686
O          O       0.28770   0.91855   0.30686
O          O       0.95440   0.68330   0.82697
O          O       0.04560   0.31670   0.32697
O          O       0.04560   0.18330   0.82697
O          O       0.95440   0.81670   0.32697
O          O       0.01430   0.54340   0.89506
O          O       0.98570   0.45660   0.39506
O          O       0.98570   0.04340   0.89506
O          O       0.01430   0.95660   0.39506
O          O       0.10450   0.49530   0.97598
O          O       0.89550   0.50470   0.47598
O          O       0.89550   0.99530   0.97598
O          O       0.10450   0.00470   0.47598
O          O       0.78040   0.40201   0.84443
O          O       0.21960   0.59799   0.34443
O          O       0.21960   0.90201   0.84443
O          O       0.78040   0.09799   0.34443
O          O       0.56550   0.52460   0.68339
O          O       0.43450   0.47540   0.18339
O          O       0.43450   0.02460   0.68339
O          O       0.56550   0.97540   0.18339
O          O       0.10650   0.73850   0.93878
O          O       0.89350   0.26150   0.43878
O          O       0.89350   0.23850   0.93878
O          O       0.10650   0.76150   0.43878
O          O       0.27720   0.48300   0.61125
O          O       0.72280   0.51700   0.11125
O          O       0.72280   0.98300   0.61125
O          O       0.27720   0.01700   0.11125
O          O       0.42500   0.72230   0.72549
O          O       0.57500   0.27770   0.22549
O          O       0.57500   0.22230   0.72549
O          O       0.42500   0.77770   0.22549
O          O       0.71910   0.76380   0.79539
O          O       0.28090   0.23620   0.29539
O          O       0.28090   0.26380   0.79539
O          O       0.71910   0.73620   0.29539
O          O       0.64660   0.25919   0.84095
O          O       0.35340   0.74081   0.34095
O          O       0.35340   0.75919   0.84095
O          O       0.64660   0.24081   0.34095
O          O       0.62490   0.59980   0.86431
O          O       0.37510   0.40020   0.36431
O          O       0.37510   0.09980   0.86431
O          O       0.62490   0.90020   0.36431
O          O       0.39320   0.61040   0.92040
O          O       0.60680   0.38960   0.42040
O          O       0.60680   0.11040   0.92040
O          O       0.39320   0.88960   0.42040
O          O       0.68130   0.55950   0.76344
O          O       0.31870   0.44050   0.26344
O          O       0.31870   0.05950   0.76344
O          O       0.68130   0.94050   0.26344
O          O       0.97540   0.79250   0.01326
O          O       0.02460   0.20750   0.51326
O          O       0.02460   0.29250   0.01326
O          O       0.97540   0.70750   0.51326
O          O       0.70860   0.66570   0.60394
O          O       0.29140   0.33430   0.10394
O          O       0.29140   0.16570   0.60394
O          O       0.70860   0.83430   0.10394
O          O       0.94570   0.75220   0.62857
O          O       0.05430   0.24780   0.12857
O          O       0.05430   0.25220   0.62857
O          O       0.94570   0.74780   0.12857
O          O       0.37740   0.64920   0.54365
O          O       0.62260   0.35080   0.04365
O          O       0.62260   0.14920   0.54365
O          O       0.37740   0.85080   0.04365
O          O       0.61510   0.64780   0.48938
O          O       0.38490   0.35220   0.98938
O          O       0.38490   0.14780   0.48938
O          O       0.61510   0.85220   0.98938
O          O       0.64270   0.48886   0.56821
O          O       0.35730   0.51114   0.06821
O          O       0.35730   0.98886   0.56821
O          O       0.64270   0.01114   0.06821
O          O       0.78260   0.34729   0.56534
O          O       0.21740   0.65271   0.06534
O          O       0.21740   0.84729   0.56534
O          O       0.78260   0.15271   0.06534
O          O       0.04270   0.56680   0.58211
O          O       0.95730   0.43320   0.08211
O          O       0.95730   0.06680   0.58211
O          O       0.04270   0.93320   0.08211
O          O       0.31360   0.68750   0.64465
O          O       0.68640   0.31250   0.14465
O          O       0.68640   0.18750   0.64465
O          O       0.31360   0.81250   0.14465
