data_crystal
 
_cell_length_a    22.28660
_cell_length_b    22.28660
_cell_length_c    12.81640
_cell_angle_alpha 90.00000
_cell_angle_beta  90.00000
_cell_angle_gamma 120.00000
 
_symmetry_space_group_name_Hall 'P 1'
_symmetry_space_group_name_H-M  'P 1'
 
loop_
_symmetry_equiv_pos_as_xyz
 'x,y,z' 
 
loop_
_atom_site_label
_atom_site_type_symbol
_atom_site_fract_x
_atom_site_fract_y
_atom_site_fract_z
_atom_site_charge
C          C       0.19560   0.48030   0.94760   0.0000000000
C          C       0.71530   0.19560   0.44760   0.0000000000
C          C       0.51970   0.71530   0.94760   0.0000000000
C          C       0.80440   0.51970   0.44760   0.0000000000
C          C       0.28470   0.80440   0.94760   0.0000000000
C          C       0.48030   0.28470   0.44760   0.0000000000
C          C       0.28470   0.48030   0.44760   0.0000000000
C          C       0.80440   0.28470   0.94760   0.0000000000
C          C       0.51970   0.80440   0.44760   0.0000000000
C          C       0.71530   0.51970   0.94760   0.0000000000
C          C       0.19560   0.71530   0.44760   0.0000000000
C          C       0.48030   0.19560   0.94760   0.0000000000
C          C       0.80440   0.51970   0.05240   0.0000000000
C          C       0.28470   0.80440   0.55240   0.0000000000
C          C       0.48030   0.28470   0.05240   0.0000000000
C          C       0.19560   0.48030   0.55240   0.0000000000
C          C       0.71530   0.19560   0.05240   0.0000000000
C          C       0.51970   0.71530   0.55240   0.0000000000
C          C       0.71530   0.51970   0.55240   0.0000000000
C          C       0.19560   0.71530   0.05240   0.0000000000
C          C       0.48030   0.19560   0.55240   0.0000000000
C          C       0.28470   0.48030   0.05240   0.0000000000
C          C       0.80440   0.28470   0.55240   0.0000000000
C          C       0.51970   0.80440   0.05240   0.0000000000
C          C       0.09570   0.37200   0.88250   0.0000000000
C          C       0.72370   0.09570   0.38250   0.0000000000
C          C       0.62800   0.72370   0.88250   0.0000000000
C          C       0.90430   0.62800   0.38250   0.0000000000
C          C       0.27630   0.90430   0.88250   0.0000000000
C          C       0.37200   0.27630   0.38250   0.0000000000
C          C       0.27630   0.37200   0.38250   0.0000000000
C          C       0.90430   0.27630   0.88250   0.0000000000
C          C       0.62800   0.90430   0.38250   0.0000000000
C          C       0.72370   0.62800   0.88250   0.0000000000
C          C       0.09570   0.72370   0.38250   0.0000000000
C          C       0.37200   0.09570   0.88250   0.0000000000
C          C       0.90430   0.62800   0.11750   0.0000000000
C          C       0.27630   0.90430   0.61750   0.0000000000
C          C       0.37200   0.27630   0.11750   0.0000000000
C          C       0.09570   0.37200   0.61750   0.0000000000
C          C       0.72370   0.09570   0.11750   0.0000000000
C          C       0.62800   0.72370   0.61750   0.0000000000
C          C       0.72370   0.62800   0.61750   0.0000000000
C          C       0.09570   0.72370   0.11750   0.0000000000
C          C       0.37200   0.09570   0.61750   0.0000000000
C          C       0.27630   0.37200   0.11750   0.0000000000
C          C       0.90430   0.27630   0.61750   0.0000000000
C          C       0.62800   0.90430   0.11750   0.0000000000
C          C       0.15960   0.40770   0.94680   0.0000000000
C          C       0.75190   0.15960   0.44680   0.0000000000
C          C       0.59230   0.75190   0.94680   0.0000000000
C          C       0.84040   0.59230   0.44680   0.0000000000
C          C       0.24810   0.84040   0.94680   0.0000000000
C          C       0.40770   0.24810   0.44680   0.0000000000
C          C       0.24810   0.40770   0.44680   0.0000000000
C          C       0.84040   0.24810   0.94680   0.0000000000
C          C       0.59230   0.84040   0.44680   0.0000000000
C          C       0.75190   0.59230   0.94680   0.0000000000
C          C       0.15960   0.75190   0.44680   0.0000000000
C          C       0.40770   0.15960   0.94680   0.0000000000
C          C       0.84040   0.59230   0.05320   0.0000000000
C          C       0.24810   0.84040   0.55320   0.0000000000
C          C       0.40770   0.24810   0.05320   0.0000000000
C          C       0.15960   0.40770   0.55320   0.0000000000
C          C       0.75190   0.15960   0.05320   0.0000000000
C          C       0.59230   0.75190   0.55320   0.0000000000
C          C       0.75190   0.59230   0.55320   0.0000000000
C          C       0.15960   0.75190   0.05320   0.0000000000
C          C       0.40770   0.15960   0.55320   0.0000000000
C          C       0.24810   0.40770   0.05320   0.0000000000
C          C       0.84040   0.24810   0.55320   0.0000000000
C          C       0.59230   0.84040   0.05320   0.0000000000
O          O       0.07340   0.30900   0.85770   0.0000000000
O          O       0.76440   0.07340   0.35770   0.0000000000
O          O       0.69100   0.76440   0.85770   0.0000000000
O          O       0.92660   0.69100   0.35770   0.0000000000
O          O       0.23560   0.92660   0.85770   0.0000000000
O          O       0.30900   0.23560   0.35770   0.0000000000
O          O       0.23560   0.30900   0.35770   0.0000000000
O          O       0.92660   0.23560   0.85770   0.0000000000
O          O       0.69100   0.92660   0.35770   0.0000000000
O          O       0.76440   0.69100   0.85770   0.0000000000
O          O       0.07340   0.76440   0.35770   0.0000000000
O          O       0.30900   0.07340   0.85770   0.0000000000
O          O       0.92660   0.69100   0.14230   0.0000000000
O          O       0.23560   0.92660   0.64230   0.0000000000
O          O       0.30900   0.23560   0.14230   0.0000000000
O          O       0.07340   0.30900   0.64230   0.0000000000
O          O       0.76440   0.07340   0.14230   0.0000000000
O          O       0.69100   0.76440   0.64230   0.0000000000
O          O       0.76440   0.69100   0.64230   0.0000000000
O          O       0.07340   0.76440   0.14230   0.0000000000
O          O       0.30900   0.07340   0.64230   0.0000000000
O          O       0.23560   0.30900   0.14230   0.0000000000
O          O       0.92660   0.23560   0.64230   0.0000000000
O          O       0.69100   0.92660   0.14230   0.0000000000
O          O       0.07080   0.41050   0.85500   0.0000000000
O          O       0.66030   0.07080   0.35500   0.0000000000
O          O       0.58950   0.66030   0.85500   0.0000000000
O          O       0.92920   0.58950   0.35500   0.0000000000
O          O       0.33970   0.92920   0.85500   0.0000000000
O          O       0.41050   0.33970   0.35500   0.0000000000
O          O       0.33970   0.41050   0.35500   0.0000000000
O          O       0.92920   0.33970   0.85500   0.0000000000
O          O       0.58950   0.92920   0.35500   0.0000000000
O          O       0.66030   0.58950   0.85500   0.0000000000
O          O       0.07080   0.66030   0.35500   0.0000000000
O          O       0.41050   0.07080   0.85500   0.0000000000
O          O       0.92920   0.58950   0.14500   0.0000000000
O          O       0.33970   0.92920   0.64500   0.0000000000
O          O       0.41050   0.33970   0.14500   0.0000000000
O          O       0.07080   0.41050   0.64500   0.0000000000
O          O       0.66030   0.07080   0.14500   0.0000000000
O          O       0.58950   0.66030   0.64500   0.0000000000
O          O       0.66030   0.58950   0.64500   0.0000000000
O          O       0.07080   0.66030   0.14500   0.0000000000
O          O       0.41050   0.07080   0.64500   0.0000000000
O          O       0.33970   0.41050   0.14500   0.0000000000
O          O       0.92920   0.33970   0.64500   0.0000000000
O          O       0.58950   0.92920   0.14500   0.0000000000
H          H       0.17410   0.50720   0.90400   0.0000000000
H          H       0.66690   0.17410   0.40400   0.0000000000
H          H       0.49280   0.66690   0.90400   0.0000000000
H          H       0.82590   0.49280   0.40400   0.0000000000
H          H       0.33310   0.82590   0.90400   0.0000000000
H          H       0.50720   0.33310   0.40400   0.0000000000
H          H       0.33310   0.50720   0.40400   0.0000000000
H          H       0.82590   0.33310   0.90400   0.0000000000
H          H       0.49280   0.82590   0.40400   0.0000000000
H          H       0.66690   0.49280   0.90400   0.0000000000
H          H       0.17410   0.66690   0.40400   0.0000000000
H          H       0.50720   0.17410   0.90400   0.0000000000
H          H       0.82590   0.49280   0.09600   0.0000000000
H          H       0.33310   0.82590   0.59600   0.0000000000
H          H       0.50720   0.33310   0.09600   0.0000000000
H          H       0.17410   0.50720   0.59600   0.0000000000
H          H       0.66690   0.17410   0.09600   0.0000000000
H          H       0.49280   0.66690   0.59600   0.0000000000
H          H       0.66690   0.49280   0.59600   0.0000000000
H          H       0.17410   0.66690   0.09600   0.0000000000
H          H       0.50720   0.17410   0.59600   0.0000000000
H          H       0.33310   0.50720   0.09600   0.0000000000
H          H       0.82590   0.33310   0.59600   0.0000000000
H          H       0.49280   0.82590   0.09600   0.0000000000
Cu         Cu      0.37910   0.37910   0.25000   0.0000000000
Cu         Cu      0.00000   0.37910   0.75000   0.0000000000
Cu         Cu      0.62090   0.00000   0.25000   0.0000000000
Cu         Cu      0.62090   0.62090   0.75000   0.0000000000
Cu         Cu      0.00000   0.62090   0.25000   0.0000000000
Cu         Cu      0.37910   0.00000   0.75000   0.0000000000
Cu         Cu      0.26870   0.26870   0.25000   0.0000000000
Cu         Cu      0.00000   0.26870   0.75000   0.0000000000
Cu         Cu      0.73130   0.00000   0.25000   0.0000000000
Cu         Cu      0.73130   0.73130   0.75000   0.0000000000
Cu         Cu      0.00000   0.73130   0.25000   0.0000000000
Cu         Cu      0.26870   0.00000   0.75000   0.0000000000
C          C       0.29690   0.59380   0.00000   0.0000000000
C          C       0.70310   0.29690   0.50000   0.0000000000
C          C       0.40620   0.70310   0.00000   0.0000000000
C          C       0.70310   0.40620   0.50000   0.0000000000
C          C       0.29690   0.70310   0.00000   0.0000000000
C          C       0.59380   0.29690   0.50000   0.0000000000
C          C       0.29690   0.59380   0.50000   0.0000000000
C          C       0.70310   0.29690   0.00000   0.0000000000
C          C       0.40620   0.70310   0.50000   0.0000000000
C          C       0.70310   0.40620   0.00000   0.0000000000
C          C       0.29690   0.70310   0.50000   0.0000000000
C          C       0.59380   0.29690   0.00000   0.0000000000
C          C       0.25880   0.51750   0.00000   0.0000000000
C          C       0.74130   0.25880   0.50000   0.0000000000
C          C       0.48250   0.74130   0.00000   0.0000000000
C          C       0.74120   0.48250   0.50000   0.0000000000
C          C       0.25870   0.74120   0.00000   0.0000000000
C          C       0.51750   0.25870   0.50000   0.0000000000
C          C       0.25870   0.51750   0.50000   0.0000000000
C          C       0.74120   0.25870   0.00000   0.0000000000
C          C       0.48250   0.74120   0.50000   0.0000000000
C          C       0.74130   0.48250   0.00000   0.0000000000
C          C       0.25880   0.74130   0.50000   0.0000000000
C          C       0.51750   0.25880   0.00000   0.0000000000
C          C       0.18540   0.37070   0.00000   0.0000000000
C          C       0.81470   0.18540   0.50000   0.0000000000
C          C       0.62930   0.81470   0.00000   0.0000000000
C          C       0.81460   0.62930   0.50000   0.0000000000
C          C       0.18530   0.81460   0.00000   0.0000000000
C          C       0.37070   0.18530   0.50000   0.0000000000
C          C       0.18530   0.37070   0.50000   0.0000000000
C          C       0.81460   0.18530   0.00000   0.0000000000
C          C       0.62930   0.81460   0.50000   0.0000000000
C          C       0.81470   0.62930   0.00000   0.0000000000
C          C       0.18540   0.81470   0.50000   0.0000000000
C          C       0.37070   0.18540   0.00000   0.0000000000
H          H       0.15720   0.31430   0.00000   0.0000000000
H          H       0.84290   0.15720   0.50000   0.0000000000
H          H       0.68570   0.84290   0.00000   0.0000000000
H          H       0.84280   0.68570   0.50000   0.0000000000
H          H       0.15710   0.84280   0.00000   0.0000000000
H          H       0.31430   0.15710   0.50000   0.0000000000
H          H       0.15710   0.31430   0.50000   0.0000000000
H          H       0.84280   0.15710   0.00000   0.0000000000
H          H       0.68570   0.84280   0.50000   0.0000000000
H          H       0.84290   0.68570   0.00000   0.0000000000
H          H       0.15720   0.84290   0.50000   0.0000000000
H          H       0.31430   0.15720   0.00000   0.0000000000
C          C       0.36940   0.63060   0.00000   0.0000000000
C          C       0.73880   0.36940   0.50000   0.0000000000
C          C       0.36940   0.73880   0.00000   0.0000000000
C          C       0.63060   0.36940   0.50000   0.0000000000
C          C       0.26120   0.63060   0.00000   0.0000000000
C          C       0.63060   0.26120   0.50000   0.0000000000
C          C       0.26120   0.63060   0.50000   0.0000000000
C          C       0.63060   0.26120   0.00000   0.0000000000
C          C       0.36940   0.63060   0.50000   0.0000000000
C          C       0.73880   0.36940   0.00000   0.0000000000
C          C       0.36940   0.73880   0.50000   0.0000000000
C          C       0.63060   0.36940   0.00000   0.0000000000
H          H       0.39770   0.60230   0.00000   0.0000000000
H          H       0.79540   0.39770   0.50000   0.0000000000
H          H       0.39770   0.79540   0.00000   0.0000000000
H          H       0.60230   0.39770   0.50000   0.0000000000
H          H       0.20460   0.60230   0.00000   0.0000000000
H          H       0.60230   0.20460   0.50000   0.0000000000
H          H       0.20460   0.60230   0.50000   0.0000000000
H          H       0.60230   0.20460   0.00000   0.0000000000
H          H       0.39770   0.60230   0.50000   0.0000000000
H          H       0.79540   0.39770   0.00000   0.0000000000
H          H       0.39770   0.79540   0.50000   0.0000000000
H          H       0.60230   0.39770   0.00000   0.0000000000
