data_crystal

_cell_length_a    13.75034
_cell_length_b    13.74930
_cell_length_c    7.81181
_cell_angle_alpha 90.07284
_cell_angle_beta  89.98416
_cell_angle_gamma 90.69877

_space_group_name_Hall 'P 1'
_space_group_name_H-M_alt 'P 1'

loop_
_symmetry_equiv_pos_as_xyz
 'x,y,z'

loop_
_atom_site_label
_atom_site_type_symbol
_atom_site_fract_x
_atom_site_fract_y
_atom_site_fract_z
_atom_site_charge
Ca         Ca      0.30703   0.25256   0.11634  1.4134800000
Ca         Ca      0.69395   0.74856   0.12970  1.4135300000
Ca         Ca      0.25266   0.69270   0.87574  1.4134500000
Ca         Ca      0.74758   0.30726   0.87666  1.4135200000
Ca         Ca      0.18818   0.24962   0.61932  1.4119100000
Ca         Ca      0.81282   0.74926   0.63007  1.4093500000
Ca         Ca      0.74837   0.18757   0.37259  1.4115700000
Ca         Ca      0.25278   0.81184   0.37199  1.4104400000
H          H       0.52000   0.23780   0.21553  0.3839800000
H          H       0.48107   0.76302   0.22797  0.3809400000
H          H       0.23625   0.47983   0.77595  0.3835000000
H          H       0.75713   0.52047   0.78238  0.3821500000
H          H       0.97529   0.23487   0.52113  0.3834500000
H          H       0.02498   0.76566   0.53152  0.3840100000
H          H       0.25971   0.47977   0.97508  0.3815900000
H          H       0.73291   0.51965   0.98118  0.3835100000
H          H       0.02541   0.73761   0.72880  0.3832100000
H          H       0.97523   0.26062   0.71947  0.3833900000
H          H       0.75384   0.97436   0.27374  0.3818000000
H          H       0.26452   0.02469   0.26796  0.3845000000
H          H       0.48076   0.74071   0.02847  0.3826500000
H          H       0.51993   0.26128   0.01644  0.3821900000
H          H       0.78008   0.97748   0.47204  0.3847200000
H          H       0.24101   0.02409   0.46725  0.3819600000
C          C       0.25862   0.02318   0.96136  0.1815600000
C          C       0.74445   0.97643   0.96732  0.1804700000
C          C       0.02377   0.73317   0.03560  0.1820400000
C          C       0.97588   0.25408   0.02900  0.1800300000
C          C       0.23886   0.02194   0.77489  0.1802200000
C          C       0.76600   0.97776   0.78133  0.1816000000
C          C       0.48100   0.75342   0.72029  0.1809300000
C          C       0.51964   0.26121   0.70916  0.1812600000
C          C       0.76397   0.51977   0.47438  0.1792000000
C          C       0.23752   0.47997   0.46859  0.1795600000
C          C       0.51982   0.24156   0.52254  0.1801200000
C          C       0.48235   0.77236   0.53337  0.1813200000
C          C       0.74348   0.51974   0.28803  0.1802100000
C          C       0.25724   0.48009   0.28201  0.1806700000
C          C       0.97646   0.23280   0.21493  0.1819600000
C          C       0.02406   0.75638   0.22090  0.1813900000
C          C       0.25598   0.91607   0.96233  0.1708700000
C          C       0.73715   0.08333   0.96507  0.1683500000
C          C       0.91663   0.73374   0.03678  0.1682100000
C          C       0.08307   0.25338   0.02879  0.1686500000
C          C       0.23964   0.91487   0.77772  0.1688300000
C          C       0.75525   0.08404   0.78088  0.1692100000
C          C       0.58818   0.75372   0.72067  0.1690300000
C          C       0.41251   0.26059   0.70714  0.1705400000
C          C       0.76438   0.41257   0.47206  0.1692300000
C          C       0.24262   0.58710   0.46893  0.1698600000
C          C       0.41267   0.24436   0.52243  0.1699100000
C          C       0.58942   0.76839   0.53574  0.1686800000
C          C       0.74785   0.41264   0.28737  0.1714300000
C          C       0.25882   0.58726   0.28428  0.1694500000
C          C       0.08350   0.23541   0.21304  0.1697900000
C          C       0.91695   0.75369   0.22057  0.1685300000
O          O       0.27326   0.08718   0.07501 -0.4933700000
O          O       0.73606   0.91246   0.08284 -0.4970000000
O          O       0.08689   0.71839   0.92103 -0.4955100000
O          O       0.91216   0.26856   0.91551 -0.4959200000
O          O       0.22634   0.08450   0.65871 -0.4916900000
O          O       0.78703   0.91631   0.66719 -0.4899900000
O          O       0.41684   0.73988   0.83402 -0.4946300000
O          O       0.58283   0.27346   0.82494 -0.4942600000
O          O       0.77593   0.58313   0.59040 -0.4954900000
O          O       0.22206   0.41665   0.58292 -0.4921500000
O          O       0.58327   0.22685   0.40839 -0.4945700000
O          O       0.41996   0.78574   0.41721 -0.4923800000
O          O       0.72675   0.58300   0.17474 -0.4944100000
O          O       0.26873   0.41662   0.16653 -0.4961600000
O          O       0.91372   0.21819   0.33063 -0.4915300000
O          O       0.08752   0.77309   0.33459 -0.4945500000
O          O       0.26409   0.84653   0.06696 -0.5217300000
O          O       0.72285   0.15299   0.06778 -0.5206300000
O          O       0.84657   0.72288   0.93334 -0.5201500000
O          O       0.15302   0.26391   0.92488 -0.5226800000
O          O       0.23127   0.84399   0.67531 -0.5190500000
O          O       0.75942   0.15386   0.67604 -0.5199300000
O          O       0.65791   0.74433   0.82465 -0.5221600000
O          O       0.34212   0.26886   0.81020 -0.5228400000
O          O       0.77297   0.34233   0.57489 -0.5170400000
O          O       0.23669   0.65723   0.57303 -0.5170600000
O          O       0.34249   0.23631   0.41869 -0.5190500000
O          O       0.66044   0.77277   0.43303 -0.5207500000
O          O       0.74034   0.34244   0.18312 -0.5243100000
O          O       0.26910   0.65784   0.18187 -0.5225800000
O          O       0.15357   0.22733   0.31644 -0.5179400000
O          O       0.84720   0.76376   0.32447 -0.5197500000
O          O       0.47680   0.25017   0.11650 -0.8513000000
O          O       0.52355   0.74534   0.13036 -0.8486200000
O          O       0.25024   0.52295   0.87499 -0.8498600000
O          O       0.74087   0.47702   0.87976 -0.8485600000
O          O       0.01839   0.25003   0.61975 -0.8494900000
O          O       0.98222   0.75451   0.63194 -0.8468800000
O          O       0.76800   0.01895   0.37069 -0.8502700000
O          O       0.25456   0.98130   0.36788 -0.8516500000
