data_crystal

_cell_length_a    22.45670
_cell_length_b    22.45670
_cell_length_c    22.45670
_cell_angle_alpha 90.00000
_cell_angle_beta  90.00000
_cell_angle_gamma 90.00000

_space_group_name_Hall 'P 1'
_space_group_name_H-M_alt 'P 1'

loop_
_symmetry_equiv_pos_as_xyz
 'x,y,z'

loop_
_atom_site_label
_atom_site_type_symbol
_atom_site_fract_x
_atom_site_fract_y
_atom_site_fract_z
In         In      0.32190   0.26043   0.19349
In         In      0.19349   0.32190   0.26043
In         In      0.26043   0.19349   0.32190
In         In      0.32190   0.73957   0.80651
In         In      0.67810   0.73957   0.19349
In         In      0.80651   0.32190   0.73957
In         In      0.19349   0.67810   0.73957
In         In      0.73957   0.80651   0.32190
In         In      0.73957   0.19349   0.67810
In         In      0.23957   0.82190   0.30651
In         In      0.82190   0.30651   0.23957
In         In      0.30651   0.23957   0.82190
In         In      0.67810   0.26043   0.80651
In         In      0.80651   0.67810   0.26043
In         In      0.26043   0.80651   0.67810
In         In      0.76043   0.17810   0.30651
In         In      0.23957   0.17810   0.69349
In         In      0.76043   0.82190   0.69349
In         In      0.17810   0.30651   0.76043
In         In      0.17810   0.69349   0.23957
In         In      0.82190   0.69349   0.76043
In         In      0.30651   0.76043   0.17810
In         In      0.69349   0.23957   0.17810
In         In      0.69349   0.76043   0.82190
H          H       0.42520   0.79500   0.58330
H          H       0.60660   0.80430   0.59230
H          H       0.50820   0.77880   0.74160
H          H       0.57480   0.20500   0.58330
H          H       0.39340   0.19570   0.59230
H          H       0.49180   0.22120   0.74160
H          H       0.57480   0.79500   0.41670
H          H       0.39340   0.80430   0.40770
H          H       0.49180   0.77880   0.25840
H          H       0.42520   0.20500   0.41670
H          H       0.60660   0.19570   0.40770
H          H       0.50820   0.22120   0.25840
H          H       0.58330   0.42520   0.79500
H          H       0.59230   0.60660   0.80430
H          H       0.74160   0.50820   0.77880
H          H       0.58330   0.57480   0.20500
H          H       0.59230   0.39340   0.19570
H          H       0.74160   0.49180   0.22120
H          H       0.41670   0.57480   0.79500
H          H       0.40770   0.39340   0.80430
H          H       0.25840   0.49180   0.77880
H          H       0.41670   0.42520   0.20500
H          H       0.40770   0.60660   0.19570
H          H       0.25840   0.50820   0.22120
H          H       0.79500   0.58330   0.42520
H          H       0.80430   0.59230   0.60660
H          H       0.77880   0.74160   0.50820
H          H       0.20500   0.58330   0.57480
H          H       0.19570   0.59230   0.39340
H          H       0.22120   0.74160   0.49180
H          H       0.79500   0.41670   0.57480
H          H       0.80430   0.40770   0.39340
H          H       0.77880   0.25840   0.49180
H          H       0.20500   0.41670   0.42520
H          H       0.19570   0.40770   0.60660
H          H       0.22120   0.25840   0.50820
H          H       0.29500   0.92520   0.08330
H          H       0.30430   0.10660   0.09230
H          H       0.27880   0.00820   0.24160
H          H       0.70500   0.07480   0.08330
H          H       0.69570   0.89340   0.09230
H          H       0.72120   0.99180   0.24160
H          H       0.29500   0.07480   0.91670
H          H       0.30430   0.89340   0.90770
H          H       0.27880   0.99180   0.75840
H          H       0.70500   0.92520   0.91670
H          H       0.69570   0.10660   0.90770
H          H       0.72120   0.00820   0.75840
H          H       0.92520   0.08330   0.29500
H          H       0.10660   0.09230   0.30430
H          H       0.00820   0.24160   0.27880
H          H       0.07480   0.08330   0.70500
H          H       0.89340   0.09230   0.69570
H          H       0.99180   0.24160   0.72120
H          H       0.07480   0.91670   0.29500
H          H       0.89340   0.90770   0.30430
H          H       0.99180   0.75840   0.27880
H          H       0.92520   0.91670   0.70500
H          H       0.10660   0.90770   0.69570
H          H       0.00820   0.75840   0.72120
H          H       0.08330   0.29500   0.92520
H          H       0.09230   0.30430   0.10660
H          H       0.24160   0.27880   0.00820
H          H       0.08330   0.70500   0.07480
H          H       0.09230   0.69570   0.89340
H          H       0.24160   0.72120   0.99180
H          H       0.91670   0.29500   0.07480
H          H       0.90770   0.30430   0.89340
H          H       0.75840   0.27880   0.99180
H          H       0.91670   0.70500   0.92520
H          H       0.90770   0.69570   0.10660
H          H       0.75840   0.72120   0.00820
H          H       0.40875   0.77706   0.87888
H          H       0.37012   0.72774   0.91478
H          H       0.59125   0.22294   0.87888
H          H       0.62989   0.27226   0.91478
H          H       0.59125   0.77706   0.12112
H          H       0.62989   0.72774   0.08522
H          H       0.40875   0.22294   0.12112
H          H       0.37012   0.27226   0.08522
H          H       0.87888   0.40875   0.77706
H          H       0.91478   0.37012   0.72774
H          H       0.87888   0.59125   0.22294
H          H       0.91478   0.62989   0.27226
H          H       0.12112   0.59125   0.77706
H          H       0.08522   0.62989   0.72774
H          H       0.12112   0.40875   0.22294
H          H       0.08522   0.37012   0.27226
H          H       0.72412   0.85897   0.42771
H          H       0.77799   0.89321   0.39396
H          H       0.27588   0.85897   0.57229
H          H       0.22201   0.89321   0.60604
H          H       0.88024   0.59380   0.73137
H          H       0.92898   0.64163   0.75484
H          H       0.40620   0.26863   0.88024
H          H       0.35837   0.24516   0.92898
H          H       0.40620   0.73137   0.11976
H          H       0.35837   0.75484   0.07102
H          H       0.59380   0.26863   0.11976
H          H       0.64163   0.24516   0.07102
H          H       0.59380   0.73137   0.88024
H          H       0.64163   0.75484   0.92898
H          H       0.72412   0.14103   0.57229
H          H       0.77799   0.10679   0.60604
H          H       0.27588   0.14103   0.42771
H          H       0.22201   0.10679   0.39396
H          H       0.26520   0.92205   0.36567
H          H       0.19645   0.90519   0.37992
H          H       0.73480   0.07795   0.36567
H          H       0.80355   0.09481   0.37992
H          H       0.26520   0.07795   0.63433
H          H       0.19645   0.09481   0.62008
H          H       0.73480   0.92205   0.63433
H          H       0.80355   0.90519   0.62008
H          H       0.88024   0.40620   0.26863
H          H       0.92898   0.35837   0.24516
H          H       0.11976   0.40620   0.73137
H          H       0.07102   0.35837   0.75484
H          H       0.11976   0.59380   0.26863
H          H       0.07102   0.64163   0.24516
C          C       0.62290   0.79470   0.70630
C          C       0.46070   0.79500   0.60640
C          C       0.56900   0.80090   0.61140
C          C       0.56550   0.79540   0.67180
C          C       0.39870   0.77980   0.69720
C          C       0.45660   0.78890   0.66520
C          C       0.51010   0.78640   0.70000
C          C       0.51570   0.80150   0.57720
C          C       0.37710   0.20530   0.70630
C          C       0.53930   0.20500   0.60640
C          C       0.43100   0.19910   0.61140
C          C       0.43450   0.20460   0.67180
C          C       0.60130   0.22020   0.69720
C          C       0.54340   0.21110   0.66520
C          C       0.48990   0.21360   0.70000
C          C       0.48430   0.19850   0.57720
C          C       0.37710   0.79470   0.29370
C          C       0.53930   0.79500   0.39360
C          C       0.43100   0.80090   0.38860
C          C       0.43450   0.79540   0.32820
C          C       0.60130   0.77980   0.30280
C          C       0.54340   0.78890   0.33480
C          C       0.48990   0.78640   0.30000
C          C       0.48430   0.80150   0.42280
C          C       0.62290   0.20530   0.29370
C          C       0.46070   0.20500   0.39360
C          C       0.56900   0.19910   0.38860
C          C       0.56550   0.20460   0.32820
C          C       0.39870   0.22020   0.30280
C          C       0.45660   0.21110   0.33480
C          C       0.51010   0.21360   0.30000
C          C       0.51570   0.19850   0.42280
C          C       0.70630   0.62290   0.79470
C          C       0.60640   0.46070   0.79500
C          C       0.61140   0.56900   0.80090
C          C       0.67180   0.56550   0.79540
C          C       0.69720   0.39870   0.77980
C          C       0.66520   0.45660   0.78890
C          C       0.70000   0.51010   0.78640
C          C       0.57720   0.51570   0.80150
C          C       0.70630   0.37710   0.20530
C          C       0.60640   0.53930   0.20500
C          C       0.61140   0.43100   0.19910
C          C       0.67180   0.43450   0.20460
C          C       0.69720   0.60130   0.22020
C          C       0.66520   0.54340   0.21110
C          C       0.70000   0.48990   0.21360
C          C       0.57720   0.48430   0.19850
C          C       0.29370   0.37710   0.79470
C          C       0.39360   0.53930   0.79500
C          C       0.38860   0.43100   0.80090
C          C       0.32820   0.43450   0.79540
C          C       0.30280   0.60130   0.77980
C          C       0.33480   0.54340   0.78890
C          C       0.30000   0.48990   0.78640
C          C       0.42280   0.48430   0.80150
C          C       0.29370   0.62290   0.20530
C          C       0.39360   0.46070   0.20500
C          C       0.38860   0.56900   0.19910
C          C       0.32820   0.56550   0.20460
C          C       0.30280   0.39870   0.22020
C          C       0.33480   0.45660   0.21110
C          C       0.30000   0.51010   0.21360
C          C       0.42280   0.51570   0.19850
C          C       0.79470   0.70630   0.62290
C          C       0.79500   0.60640   0.46070
C          C       0.80090   0.61140   0.56900
C          C       0.79540   0.67180   0.56550
C          C       0.77980   0.69720   0.39870
C          C       0.78890   0.66520   0.45660
C          C       0.78640   0.70000   0.51010
C          C       0.80150   0.57720   0.51570
C          C       0.20530   0.70630   0.37710
C          C       0.20500   0.60640   0.53930
C          C       0.19910   0.61140   0.43100
C          C       0.20460   0.67180   0.43450
C          C       0.22020   0.69720   0.60130
C          C       0.21110   0.66520   0.54340
C          C       0.21360   0.70000   0.48990
C          C       0.19850   0.57720   0.48430
C          C       0.79470   0.29370   0.37710
C          C       0.79500   0.39360   0.53930
C          C       0.80090   0.38860   0.43100
C          C       0.79540   0.32820   0.43450
C          C       0.77980   0.30280   0.60130
C          C       0.78890   0.33480   0.54340
C          C       0.78640   0.30000   0.48990
C          C       0.80150   0.42280   0.48430
C          C       0.20530   0.29370   0.62290
C          C       0.20500   0.39360   0.46070
C          C       0.19910   0.38860   0.56900
C          C       0.20460   0.32820   0.56550
C          C       0.22020   0.30280   0.39870
C          C       0.21110   0.33480   0.45660
C          C       0.21360   0.30000   0.51010
C          C       0.19850   0.42280   0.51570
C          C       0.29470   0.12290   0.20630
C          C       0.29500   0.96070   0.10640
C          C       0.30090   0.06900   0.11140
C          C       0.29540   0.06550   0.17180
C          C       0.27980   0.89870   0.19720
C          C       0.28890   0.95660   0.16520
C          C       0.28640   0.01010   0.20000
C          C       0.30150   0.01570   0.07720
C          C       0.70530   0.87710   0.20630
C          C       0.70500   0.03930   0.10640
C          C       0.69910   0.93100   0.11140
C          C       0.70460   0.93450   0.17180
C          C       0.72020   0.10130   0.19720
C          C       0.71110   0.04340   0.16520
C          C       0.71360   0.98990   0.20000
C          C       0.69850   0.98430   0.07720
C          C       0.29470   0.87710   0.79370
C          C       0.29500   0.03930   0.89360
C          C       0.30090   0.93100   0.88860
C          C       0.29540   0.93450   0.82820
C          C       0.27980   0.10130   0.80280
C          C       0.28890   0.04340   0.83480
C          C       0.28640   0.98990   0.80000
C          C       0.30150   0.98430   0.92280
C          C       0.70530   0.12290   0.79370
C          C       0.70500   0.96070   0.89360
C          C       0.69910   0.06900   0.88860
C          C       0.70460   0.06550   0.82820
C          C       0.72020   0.89870   0.80280
C          C       0.71110   0.95660   0.83480
C          C       0.71360   0.01010   0.80000
C          C       0.69850   0.01570   0.92280
C          C       0.12290   0.20630   0.29470
C          C       0.96070   0.10640   0.29500
C          C       0.06900   0.11140   0.30090
C          C       0.06550   0.17180   0.29540
C          C       0.89870   0.19720   0.27980
C          C       0.95660   0.16520   0.28890
C          C       0.01010   0.20000   0.28640
C          C       0.01570   0.07720   0.30150
C          C       0.87710   0.20630   0.70530
C          C       0.03930   0.10640   0.70500
C          C       0.93100   0.11140   0.69910
C          C       0.93450   0.17180   0.70460
C          C       0.10130   0.19720   0.72020
C          C       0.04340   0.16520   0.71110
C          C       0.98990   0.20000   0.71360
C          C       0.98430   0.07720   0.69850
C          C       0.87710   0.79370   0.29470
C          C       0.03930   0.89360   0.29500
C          C       0.93100   0.88860   0.30090
C          C       0.93450   0.82820   0.29540
C          C       0.10130   0.80280   0.27980
C          C       0.04340   0.83480   0.28890
C          C       0.98990   0.80000   0.28640
C          C       0.98430   0.92280   0.30150
C          C       0.12290   0.79370   0.70530
C          C       0.96070   0.89360   0.70500
C          C       0.06900   0.88860   0.69910
C          C       0.06550   0.82820   0.70460
C          C       0.89870   0.80280   0.72020
C          C       0.95660   0.83480   0.71110
C          C       0.01010   0.80000   0.71360
C          C       0.01570   0.92280   0.69850
C          C       0.20630   0.29470   0.12290
C          C       0.10640   0.29500   0.96070
C          C       0.11140   0.30090   0.06900
C          C       0.17180   0.29540   0.06550
C          C       0.19720   0.27980   0.89870
C          C       0.16520   0.28890   0.95660
C          C       0.20000   0.28640   0.01010
C          C       0.07720   0.30150   0.01570
C          C       0.20630   0.70530   0.87710
C          C       0.10640   0.70500   0.03930
C          C       0.11140   0.69910   0.93100
C          C       0.17180   0.70460   0.93450
C          C       0.19720   0.72020   0.10130
C          C       0.16520   0.71110   0.04340
C          C       0.20000   0.71360   0.98990
C          C       0.07720   0.69850   0.98430
C          C       0.79370   0.29470   0.87710
C          C       0.89360   0.29500   0.03930
C          C       0.88860   0.30090   0.93100
C          C       0.82820   0.29540   0.93450
C          C       0.80280   0.27980   0.10130
C          C       0.83480   0.28890   0.04340
C          C       0.80000   0.28640   0.98990
C          C       0.92280   0.30150   0.98430
C          C       0.79370   0.70530   0.12290
C          C       0.89360   0.70500   0.96070
C          C       0.88860   0.69910   0.06900
C          C       0.82820   0.70460   0.06550
C          C       0.80280   0.72020   0.89870
C          C       0.83480   0.71110   0.95660
C          C       0.80000   0.71360   0.01010
C          C       0.92280   0.69850   0.01570
N          N       0.52250   0.80770   0.51580
N          N       0.47750   0.19230   0.51580
N          N       0.47750   0.80770   0.48420
N          N       0.52250   0.19230   0.48420
N          N       0.51580   0.52250   0.80770
N          N       0.51580   0.47750   0.19230
N          N       0.48420   0.47750   0.80770
N          N       0.48420   0.52250   0.19230
N          N       0.80770   0.51580   0.52250
N          N       0.19230   0.51580   0.47750
N          N       0.80770   0.48420   0.47750
N          N       0.19230   0.48420   0.52250
N          N       0.30770   0.02250   0.01580
N          N       0.69230   0.97750   0.01580
N          N       0.30770   0.97750   0.98420
N          N       0.69230   0.02250   0.98420
N          N       0.02250   0.01580   0.30770
N          N       0.97750   0.01580   0.69230
N          N       0.97750   0.98420   0.30770
N          N       0.02250   0.98420   0.69230
N          N       0.01580   0.30770   0.02250
N          N       0.01580   0.69230   0.97750
N          N       0.98420   0.30770   0.97750
N          N       0.98420   0.69230   0.02250
N          N       0.14010   0.85990   0.85990
N          N       0.39510   0.60490   0.60490
N          N       0.85990   0.14010   0.85990
N          N       0.60490   0.39510   0.60490
N          N       0.85990   0.85990   0.14010
N          N       0.60490   0.60490   0.39510
N          N       0.14010   0.14010   0.14010
N          N       0.39510   0.39510   0.39510
O          O       0.39700   0.76130   0.74840
O          O       0.62220   0.77910   0.75880
O          O       0.35360   0.79390   0.66340
O          O       0.66730   0.81040   0.67630
O          O       0.38920   0.73750   0.87610
O          O       0.60300   0.23870   0.74840
O          O       0.37780   0.22090   0.75880
O          O       0.64640   0.20610   0.66340
O          O       0.33270   0.18960   0.67630
O          O       0.61080   0.26250   0.87610
O          O       0.60300   0.76130   0.25160
O          O       0.37780   0.77910   0.24120
O          O       0.64640   0.79390   0.33660
O          O       0.33270   0.81040   0.32370
O          O       0.61080   0.73750   0.12390
O          O       0.39700   0.23870   0.25160
O          O       0.62220   0.22090   0.24120
O          O       0.35360   0.20610   0.33660
O          O       0.66730   0.18960   0.32370
O          O       0.38920   0.26250   0.12390
O          O       0.74840   0.39700   0.76130
O          O       0.75880   0.62220   0.77910
O          O       0.66340   0.35360   0.79390
O          O       0.67630   0.66730   0.81040
O          O       0.87610   0.38920   0.73750
O          O       0.74840   0.60300   0.23870
O          O       0.75880   0.37780   0.22090
O          O       0.66340   0.64640   0.20610
O          O       0.67630   0.33270   0.18960
O          O       0.87610   0.61080   0.26250
O          O       0.25160   0.60300   0.76130
O          O       0.24120   0.37780   0.77910
O          O       0.33660   0.64640   0.79390
O          O       0.32370   0.33270   0.81040
O          O       0.12390   0.61080   0.73750
O          O       0.25160   0.39700   0.23870
O          O       0.24120   0.62220   0.22090
O          O       0.33660   0.35360   0.20610
O          O       0.32370   0.66730   0.18960
O          O       0.12390   0.38920   0.26250
O          O       0.76130   0.74840   0.39700
O          O       0.77910   0.75880   0.62220
O          O       0.79390   0.66340   0.35360
O          O       0.81040   0.67630   0.66730
O          O       0.73750   0.87610   0.38920
O          O       0.23870   0.74840   0.60300
O          O       0.22090   0.75880   0.37780
O          O       0.20610   0.66340   0.64640
O          O       0.18960   0.67630   0.33270
O          O       0.26250   0.87610   0.61080
O          O       0.76130   0.25160   0.60300
O          O       0.77910   0.24120   0.37780
O          O       0.79390   0.33660   0.64640
O          O       0.81040   0.32370   0.33270
O          O       0.73750   0.12390   0.61080
O          O       0.23870   0.25160   0.39700
O          O       0.22090   0.24120   0.62220
O          O       0.20610   0.33660   0.35360
O          O       0.18960   0.32370   0.66730
O          O       0.26250   0.12390   0.38920
O          O       0.27910   0.12220   0.25880
O          O       0.31040   0.16730   0.17630
O          O       0.23750   0.88920   0.37610
O          O       0.72090   0.87780   0.25880
O          O       0.68960   0.83270   0.17630
O          O       0.76250   0.11080   0.37610
O          O       0.23750   0.11080   0.62390
O          O       0.76250   0.88920   0.62390
O          O       0.12220   0.25880   0.27910
O          O       0.16730   0.17630   0.31040
O          O       0.88920   0.37610   0.23750
O          O       0.87780   0.25880   0.72090
O          O       0.83270   0.17630   0.68960
O          O       0.11080   0.37610   0.76250
O          O       0.11080   0.62390   0.23750
O          O       0.88920   0.62390   0.76250
O          O       0.25880   0.27910   0.12220
O          O       0.17630   0.31040   0.16730
O          O       0.37610   0.23750   0.88920
O          O       0.25880   0.72090   0.87780
O          O       0.17630   0.68960   0.83270
O          O       0.37610   0.76250   0.11080
O          O       0.62390   0.23750   0.11080
O          O       0.62390   0.76250   0.88920
O          O       0.25930   0.74070   0.74070
O          O       0.74070   0.25930   0.74070
O          O       0.74070   0.74070   0.25930
O          O       0.25930   0.25930   0.25930
O          O       0.24070   0.75930   0.24070
O          O       0.75930   0.24070   0.24070
O          O       0.24070   0.24070   0.75930
O          O       0.75930   0.75930   0.75930
O          O       0.17100   0.90400   0.84700
O          O       0.15300   0.82900   0.90400
O          O       0.09600   0.84700   0.82900
O          O       0.44130   0.62300   0.63200
O          O       0.36800   0.55870   0.62300
O          O       0.37700   0.63200   0.55870
O          O       0.82900   0.09600   0.84700
O          O       0.84700   0.17100   0.90400
O          O       0.90400   0.15300   0.82900
O          O       0.55870   0.37700   0.63200
O          O       0.63200   0.44130   0.62300
O          O       0.62300   0.36800   0.55870
O          O       0.82900   0.90400   0.15300
O          O       0.84700   0.82900   0.09600
O          O       0.90400   0.84700   0.17100
O          O       0.55870   0.62300   0.36800
O          O       0.63200   0.55870   0.37700
O          O       0.62300   0.63200   0.44130
O          O       0.17100   0.09600   0.15300
O          O       0.15300   0.17100   0.09600
O          O       0.09600   0.15300   0.17100
O          O       0.44130   0.37700   0.36800
O          O       0.36800   0.44130   0.37700
O          O       0.37700   0.36800   0.44130
O          O       0.26130   0.89700   0.24840
O          O       0.29390   0.85360   0.16340
O          O       0.73870   0.10300   0.24840
O          O       0.70610   0.14640   0.16340
O          O       0.26130   0.10300   0.75160
O          O       0.27910   0.87780   0.74120
O          O       0.29390   0.14640   0.83660
O          O       0.31040   0.83270   0.82370
O          O       0.73870   0.89700   0.75160
O          O       0.72090   0.12220   0.74120
O          O       0.70610   0.85360   0.83660
O          O       0.68960   0.16730   0.82370
O          O       0.89700   0.24840   0.26130
O          O       0.85360   0.16340   0.29390
O          O       0.10300   0.24840   0.73870
O          O       0.14640   0.16340   0.70610
O          O       0.10300   0.75160   0.26130
O          O       0.87780   0.74120   0.27910
O          O       0.14640   0.83660   0.29390
O          O       0.83270   0.82370   0.31040
O          O       0.89700   0.75160   0.73870
O          O       0.12220   0.74120   0.72090
O          O       0.85360   0.83660   0.70610
O          O       0.16730   0.82370   0.68960
O          O       0.24840   0.26130   0.89700
O          O       0.16340   0.29390   0.85360
O          O       0.24840   0.73870   0.10300
O          O       0.16340   0.70610   0.14640
O          O       0.75160   0.26130   0.10300
O          O       0.74120   0.27910   0.87780
O          O       0.83660   0.29390   0.14640
O          O       0.82370   0.31040   0.83270
O          O       0.75160   0.73870   0.89700
O          O       0.74120   0.72090   0.12220
O          O       0.83660   0.70610   0.85360
O          O       0.82370   0.68960   0.16730
