data_crystal

_cell_length_a    15.50200
_cell_length_b    18.47300
_cell_length_c    22.18700
_cell_angle_alpha 114.60136
_cell_angle_beta  110.44749
_cell_angle_gamma 90.00000

_space_group_name_Hall 'P 1'
_space_group_name_H-M_alt 'P 1'

loop_
_symmetry_equiv_pos_as_xyz
 'x,y,z'

loop_
_atom_site_label
_atom_site_type_symbol
_atom_site_fract_x
_atom_site_fract_y
_atom_site_fract_z
Cu         Cu      0.36908   0.15582   0.73816
Cu         Cu      0.63092   0.84418   0.26184
Cu         Cu      0.33739   0.24982   0.67478
Cu         Cu      0.66261   0.75018   0.32522
Cu         Cu      0.60792   0.34699   0.21584
Cu         Cu      0.39208   0.65301   0.78416
Cu         Cu      0.39014   0.10673   0.61046
Cu         Cu      0.77968   0.89327   0.38954
Cu         Cu      0.60986   0.89327   0.38954
Cu         Cu      0.51505   0.21793   0.20122
Cu         Cu      0.31383   0.78207   0.79878
Cu         Cu      0.48495   0.78207   0.79878
Cu         Cu      0.68617   0.21793   0.20122
Cu         Cu      0.86908   0.58234   0.73816
Cu         Cu      0.83739   0.42496   0.67478
Cu         Cu      0.89208   0.13115   0.78416
Cu         Cu      0.72032   0.50373   0.61046
Cu         Cu      0.89014   0.50373   0.61046
Cu         Cu      0.81383   0.01671   0.79878
Cu         Cu      0.13092   0.41766   0.26184
Cu         Cu      0.16261   0.57504   0.32522
Cu         Cu      0.10792   0.86885   0.21584
Cu         Cu      0.18617   0.98329   0.20122
Cu         Cu      0.54406   0.22529   0.08812
Cu         Cu      0.45594   0.77471   0.91188
Cu         Cu      0.22032   0.10673   0.61046
Cu         Cu      0.95594   0.13717   0.91188
Cu         Cu      0.98495   0.01671   0.79878
Cu         Cu      0.04406   0.86283   0.08812
Cu         Cu      0.10986   0.49627   0.38954
Cu         Cu      0.27968   0.49627   0.38954
Cu         Cu      0.01505   0.98329   0.20122
H          H       0.55410   0.15990   0.85100
H          H       0.70310   0.84010   0.14900
H          H       0.44590   0.84010   0.14900
H          H       0.29690   0.15990   0.85100
H          H       0.49290   0.07910   0.83020
H          H       0.66270   0.92090   0.16980
H          H       0.50710   0.92090   0.16980
H          H       0.33730   0.07910   0.83020
H          H       0.54890   0.10170   0.94360
H          H       0.60530   0.89830   0.05640
H          H       0.45110   0.89830   0.05640
H          H       0.39470   0.10170   0.94360
H          H       0.61120   0.18200   0.96440
H          H       0.64680   0.81800   0.03560
H          H       0.38880   0.81800   0.03560
H          H       0.35320   0.18200   0.96440
H          H       0.38430   0.37170   0.62400
H          H       0.76030   0.62830   0.37600
H          H       0.61570   0.62830   0.37600
H          H       0.23970   0.37170   0.62400
H          H       0.47140   0.38050   0.69120
H          H       0.78020   0.61950   0.30880
H          H       0.52860   0.61950   0.30880
H          H       0.21980   0.38050   0.69120
H          H       0.50440   0.48780   0.26980
H          H       0.23460   0.51220   0.73020
H          H       0.49560   0.51220   0.73020
H          H       0.76540   0.48780   0.26980
H          H       0.58990   0.49700   0.33840
H          H       0.25150   0.50300   0.66160
H          H       0.41010   0.50300   0.66160
H          H       0.74850   0.49700   0.33840
H          H       0.39160   0.28550   0.88440
H          H       0.50720   0.71450   0.11560
H          H       0.60840   0.71450   0.11560
H          H       0.49280   0.28550   0.88440
H          H       0.54960   0.30770   0.99800
H          H       0.55160   0.69230   0.00200
H          H       0.45040   0.69230   0.00200
H          H       0.44840   0.30770   0.99800
H          H       0.35250   0.40720   0.80640
H          H       0.54610   0.59280   0.19360
H          H       0.64750   0.59280   0.19360
H          H       0.45390   0.40720   0.80640
H          H       0.63200   0.46500   0.16300
H          H       0.46900   0.53500   0.83700
H          H       0.36800   0.53500   0.83700
H          H       0.53100   0.46500   0.16300
H          H       0.79690   0.69110   0.85100
H          H       0.05410   0.69110   0.85100
H          H       0.83730   0.75110   0.83020
H          H       0.99290   0.75110   0.83020
H          H       0.89470   0.84190   0.94360
H          H       0.04890   0.84190   0.94360
H          H       0.85320   0.78240   0.96440
H          H       0.11120   0.78240   0.96440
H          H       0.73970   0.25230   0.62400
H          H       0.88430   0.25230   0.62400
H          H       0.71980   0.31070   0.69120
H          H       0.97140   0.31070   0.69120
H          H       0.99560   0.21800   0.73020
H          H       0.73460   0.21800   0.73020
H          H       0.91010   0.15860   0.66160
H          H       0.75150   0.15860   0.66160
H          H       0.69280   0.86780   0.87900
H          H       0.68620   0.01120   0.87900
H          H       0.62010   0.92560   0.89220
H          H       0.77210   0.96660   0.89220
H          H       0.59660   0.76800   0.69620
H          H       0.59960   0.92820   0.69620
H          H       0.66330   0.76110   0.76500
H          H       0.60170   0.00390   0.76500
H          H       0.51040   0.93590   0.78220
H          H       0.77180   0.84630   0.78220
H          H       0.49430   0.86590   0.70640
H          H       0.71210   0.84050   0.70640
H          H       0.99280   0.59890   0.88440
H          H       0.89160   0.59890   0.88440
H          H       0.94840   0.69030   0.99800
H          H       0.04960   0.69030   0.99800
H          H       0.95390   0.39920   0.80640
H          H       0.85250   0.39920   0.80640
H          H       0.86800   0.30200   0.83700
H          H       0.96900   0.30200   0.83700
H          H       0.94590   0.30890   0.14900
H          H       0.20310   0.30890   0.14900
H          H       0.00710   0.24890   0.16980
H          H       0.16270   0.24890   0.16980
H          H       0.95110   0.15810   0.05640
H          H       0.10530   0.15810   0.05640
H          H       0.88880   0.21760   0.03560
H          H       0.14680   0.21760   0.03560
H          H       0.11570   0.74770   0.37600
H          H       0.26030   0.74770   0.37600
H          H       0.02860   0.68930   0.30880
H          H       0.28020   0.68930   0.30880
H          H       0.26540   0.78200   0.26980
H          H       0.00440   0.78200   0.26980
H          H       0.24850   0.84140   0.33840
H          H       0.08990   0.84140   0.33840
H          H       0.30720   0.13220   0.12100
H          H       0.31380   0.98880   0.12100
H          H       0.37990   0.07440   0.10780
H          H       0.22790   0.03340   0.10780
H          H       0.40340   0.23200   0.30380
H          H       0.40040   0.07180   0.30380
H          H       0.33670   0.23890   0.23500
H          H       0.39830   0.99610   0.23500
H          H       0.48960   0.06410   0.21780
H          H       0.22820   0.15370   0.21780
H          H       0.50570   0.13410   0.29360
H          H       0.28790   0.15950   0.29360
H          H       0.10840   0.40110   0.11560
H          H       0.00720   0.40110   0.11560
H          H       0.95040   0.30970   0.00200
H          H       0.05160   0.30970   0.00200
H          H       0.14750   0.60080   0.19360
H          H       0.04610   0.60080   0.19360
H          H       0.03100   0.69800   0.16300
H          H       0.13200   0.69800   0.16300
H          H       0.18620   0.86780   0.87900
H          H       0.19280   0.01120   0.87900
H          H       0.27210   0.92560   0.89220
H          H       0.12010   0.96660   0.89220
H          H       0.09960   0.76800   0.69620
H          H       0.09660   0.92820   0.69620
H          H       0.10170   0.76110   0.76500
H          H       0.16330   0.00390   0.76500
H          H       0.27180   0.93590   0.78220
H          H       0.01040   0.84630   0.78220
H          H       0.21210   0.86590   0.70640
H          H       0.99430   0.84050   0.70640
H          H       0.81380   0.13220   0.12100
H          H       0.80720   0.98880   0.12100
H          H       0.72790   0.07440   0.10780
H          H       0.87990   0.03340   0.10780
H          H       0.90040   0.23200   0.30380
H          H       0.90340   0.07180   0.30380
H          H       0.89830   0.23890   0.23500
H          H       0.83670   0.99610   0.23500
H          H       0.72820   0.06410   0.21780
H          H       0.98960   0.15370   0.21780
H          H       0.78790   0.13410   0.29360
H          H       0.00570   0.15950   0.29360
H          H       0.34468   0.01142   0.44989
H          H       0.42523   0.09908   0.47911
H          H       0.15532   0.56153   0.55011
H          H       0.07477   0.61997   0.52089
H          H       0.05388   0.09908   0.47911
H          H       0.10522   0.01142   0.44989
H          H       0.44612   0.61997   0.52089
H          H       0.39478   0.56153   0.55011
H          H       0.87527   0.06584   0.51483
H          H       0.89215   0.99571   0.55194
H          H       0.62473   0.55101   0.48517
H          H       0.60785   0.44377   0.44806
H          H       0.65979   0.99571   0.55194
H          H       0.63956   0.06584   0.51483
H          H       0.84021   0.44377   0.44806
H          H       0.86044   0.55101   0.48517
H          H       0.47717   0.94078   0.57101
H          H       0.37411   0.92239   0.49477
H          H       0.02283   0.36977   0.42899
H          H       0.12589   0.42762   0.50523
H          H       0.01365   0.62711   0.60318
H          H       0.08880   0.56295   0.62807
H          H       0.56934   0.12910   0.58654
H          H       0.58408   0.05579   0.62012
H          H       0.93066   0.54256   0.41346
H          H       0.91592   0.43567   0.37988
H          H       0.03604   0.05579   0.62012
H          H       0.01720   0.12910   0.58654
H          H       0.46396   0.43567   0.37988
H          H       0.48280   0.54256   0.41346
H          H       0.95629   0.86647   0.50101
H          H       0.98394   0.84669   0.42488
H          H       0.54371   0.36546   0.49899
H          H       0.51606   0.42181   0.57512
H          H       0.44094   0.84669   0.42488
H          H       0.54472   0.86647   0.50101
H          H       0.05906   0.42181   0.57512
H          H       0.95528   0.36546   0.49899
H          H       0.12067   0.92239   0.49477
H          H       0.09383   0.94078   0.57101
H          H       0.37933   0.42762   0.50523
H          H       0.40616   0.36977   0.42899
H          H       0.96072   0.93488   0.37193
H          H       0.91047   0.02393   0.39682
H          H       0.53928   0.56295   0.62807
H          H       0.58953   0.62711   0.60318
H          H       0.48635   0.02393   0.39682
H          H       0.41120   0.93488   0.37193
C          C       0.44670   0.26050   0.89340
C          C       0.55330   0.73950   0.10660
C          C       0.48710   0.27650   0.97420
C          C       0.51290   0.72350   0.02580
C          C       0.50730   0.13690   0.86080
C          C       0.64650   0.86310   0.13920
C          C       0.49270   0.86310   0.13920
C          C       0.35350   0.13690   0.86080
C          C       0.54760   0.15290   0.94120
C          C       0.60640   0.84710   0.05880
C          C       0.45240   0.84710   0.05880
C          C       0.39360   0.15290   0.94120
C          C       0.39340   0.42100   0.78680
C          C       0.60660   0.57900   0.21320
C          C       0.59610   0.48920   0.19220
C          C       0.40390   0.51080   0.80780
C          C       0.41840   0.03740   0.47280
C          C       0.05440   0.03740   0.47280
C          C       0.91850   0.02250   0.52500
C          C       0.60650   0.02250   0.52500
C          C       0.44860   0.94660   0.52120
C          C       0.07260   0.94660   0.52120
C          C       0.95440   0.98640   0.41680
C          C       0.46240   0.98640   0.41680
C          C       0.55550   0.06500   0.57200
C          C       0.01650   0.06500   0.57200
C          C       0.98110   0.89390   0.47380
C          C       0.49270   0.89390   0.47380
C          C       0.41180   0.39800   0.67600
C          C       0.73580   0.60200   0.32400
C          C       0.58820   0.60200   0.32400
C          C       0.26420   0.39800   0.67600
C          C       0.57050   0.50900   0.29740
C          C       0.27310   0.49100   0.70260
C          C       0.42950   0.49100   0.70260
C          C       0.72690   0.50900   0.29740
C          C       0.94670   0.63290   0.89340
C          C       0.98710   0.69770   0.97420
C          C       0.85350   0.72390   0.86080
C          C       0.00730   0.72390   0.86080
C          C       0.89360   0.78830   0.94120
C          C       0.04760   0.78830   0.94120
C          C       0.89340   0.36580   0.78680
C          C       0.90390   0.29700   0.80780
C          C       0.44560   0.56460   0.52720
C          C       0.58150   0.49750   0.47500
C          C       0.42740   0.42540   0.47880
C          C       0.54560   0.56960   0.58320
C          C       0.48350   0.49300   0.42800
C          C       0.51890   0.42010   0.52620
C          C       0.65290   0.90040   0.86060
C          C       0.70770   0.96020   0.86060
C          C       0.63720   0.79870   0.74640
C          C       0.60920   0.94770   0.74640
C          C       0.54140   0.89970   0.75360
C          C       0.71220   0.85390   0.75360
C          C       0.76420   0.27800   0.67600
C          C       0.91180   0.27800   0.67600
C          C       0.92950   0.21160   0.70260
C          C       0.77310   0.21160   0.70260
C          C       0.05330   0.36710   0.10660
C          C       0.01290   0.30230   0.02580
C          C       0.99270   0.27610   0.13920
C          C       0.14650   0.27610   0.13920
C          C       0.95240   0.21170   0.05880
C          C       0.10640   0.21170   0.05880
C          C       0.10660   0.63420   0.21320
C          C       0.09610   0.70300   0.19220
C          C       0.34710   0.09960   0.13940
C          C       0.29230   0.03980   0.13940
C          C       0.36280   0.20130   0.25360
C          C       0.39080   0.05230   0.25360
C          C       0.45860   0.10030   0.24640
C          C       0.28780   0.14610   0.24640
C          C       0.08820   0.72200   0.32400
C          C       0.23580   0.72200   0.32400
C          C       0.22690   0.78840   0.29740
C          C       0.07050   0.78840   0.29740
C          C       0.20770   0.90040   0.86060
C          C       0.15290   0.96020   0.86060
C          C       0.10920   0.79870   0.74640
C          C       0.13720   0.94770   0.74640
C          C       0.21220   0.89970   0.75360
C          C       0.04140   0.85390   0.75360
C          C       0.79230   0.09960   0.13940
C          C       0.84710   0.03980   0.13940
C          C       0.89080   0.20130   0.25360
C          C       0.86280   0.05230   0.25360
C          C       0.78780   0.10030   0.24640
C          C       0.95860   0.14610   0.24640
C          C       0.08160   0.56460   0.52720
C          C       0.89350   0.49750   0.47500
C          C       0.05140   0.42540   0.47880
C          C       0.03760   0.56960   0.58320
C          C       0.94450   0.49300   0.42800
C          C       0.00730   0.42010   0.52620
I          I       0.32321   0.00019   0.64642
I          I       0.67679   0.99981   0.35358
I          I       0.26679   0.17219   0.53358
I          I       0.73321   0.82781   0.46642
I          I       0.51624   0.22716   0.72990
I          I       0.78634   0.77284   0.27010
I          I       0.48376   0.77284   0.27010
I          I       0.21366   0.22716   0.72990
I          I       0.41795   0.30510   0.13824
I          I       0.27971   0.69490   0.86176
I          I       0.58205   0.69490   0.86176
I          I       0.72029   0.30510   0.13824
I          I       0.82321   0.64623   0.64642
I          I       0.76679   0.36139   0.53358
I          I       0.95156   0.99142   0.90312
I          I       0.83848   0.98111   0.67696
I          I       0.71366   0.50274   0.72990
I          I       0.77971   0.16686   0.86176
I          I       0.17679   0.35377   0.35358
I          I       0.23321   0.63861   0.46642
I          I       0.04844   0.00858   0.09688
I          I       0.16152   0.01889   0.32304
I          I       0.28634   0.49726   0.27010
I          I       0.22029   0.83314   0.13824
I          I       0.54844   0.08830   0.09688
I          I       0.45156   0.91170   0.90312
I          I       0.66152   0.30415   0.32304
I          I       0.33848   0.69585   0.67696
I          I       0.01624   0.50274   0.72990
I          I       0.08205   0.16686   0.86176
I          I       0.98376   0.49726   0.27010
I          I       0.91795   0.83314   0.13824
N          N       0.42180   0.17260   0.84360
N          N       0.57820   0.82740   0.15640
N          N       0.35140   0.37280   0.70280
N          N       0.64860   0.62720   0.29720
N          N       0.62560   0.47000   0.25120
N          N       0.37440   0.53000   0.74880
N          N       0.45810   0.04120   0.54340
N          N       0.91470   0.95880   0.45660
N          N       0.54190   0.95880   0.45660
N          N       0.92180   0.67100   0.84360
N          N       0.85140   0.33000   0.70280
N          N       0.87440   0.21880   0.74880
N          N       0.58530   0.50220   0.54340
N          N       0.58430   0.84800   0.78720
N          N       0.70290   0.93920   0.78720
N          N       0.07820   0.32900   0.15640
N          N       0.14860   0.67000   0.29720
N          N       0.12560   0.78120   0.25120
N          N       0.41570   0.15200   0.21280
N          N       0.29710   0.06080   0.21280
N          N       0.20290   0.84800   0.78720
N          N       0.79710   0.15200   0.21280
N          N       0.95810   0.50220   0.54340
N          N       0.49000   0.20100   0.98000
N          N       0.51000   0.79900   0.02000
N          N       0.08530   0.04120   0.54340
N          N       0.99000   0.77900   0.98000
N          N       0.41470   0.49780   0.45660
N          N       0.01000   0.22100   0.02000
N          N       0.08430   0.93920   0.78720
N          N       0.91570   0.06080   0.21280
N          N       0.04190   0.49780   0.45660
