data_crystal
 
_cell_length_a    16.74270
_cell_length_b    16.74270
_cell_length_c    15.32790
_cell_angle_alpha 90.00000
_cell_angle_beta  90.00000
_cell_angle_gamma 120.00000
 
_symmetry_space_group_name_Hall 'P 1'
_symmetry_space_group_name_H-M  'P 1'
 
loop_
_symmetry_equiv_pos_as_xyz
 'x,y,z' 
 
loop_
_atom_site_label
_atom_site_type_symbol
_atom_site_fract_x
_atom_site_fract_y
_atom_site_fract_z
Ni         Ni      0.73533   0.47067   0.75000 
Ni         Ni      0.52933   0.26466   0.75000 
Ni         Ni      0.73534   0.26467   0.75000 
Ni         Ni      0.26467   0.52933   0.25000 
Ni         Ni      0.47067   0.73534   0.25000 
Ni         Ni      0.26466   0.73533   0.25000 
N          N       0.80800   0.61590   0.75000 
N          N       1.38410   1.19210   0.75000 
N          N       0.80790   1.19200   0.75000 
N          N       0.19200   0.38410   0.25000 
N          N      -0.38410  -0.19210   0.25000 
N          N       0.19210  -0.19200   0.25000 
O          O       0.66670   0.33330   0.75000 
O          O       0.33330   0.66670   0.25000 
O          O       0.65390   0.47880   0.65440 
O          O       0.52120   0.17510   0.65440 
O          O       0.82490   0.34610   0.65440 
O          O       0.34610   0.52120   0.15440 
O          O       0.47880   0.82490   0.15440 
O          O       0.17510   0.65390   0.15440 
O          O       0.47880   0.65390   0.34560 
O          O       1.17510   0.52120   0.34560 
O          O       0.34610  -0.17510   0.34560 
O          O       0.52120   0.34610  -0.15440 
O          O      -0.17510   0.47880  -0.15440 
O          O       0.65390   1.17510  -0.15440 
O          O       0.34610   0.52120   0.34560 
O          O       0.47880  -0.17510   0.34560 
O          O       1.17510   0.65390   0.34560 
O          O       0.65390   0.47880  -0.15440 
O          O       0.52120   1.17510  -0.15440 
O          O      -0.17510   0.34610  -0.15440 
O          O       0.52120   0.34610   0.65440 
O          O       0.82490   0.47880   0.65440 
O          O       0.65390   0.17510   0.65440 
O          O       0.47880   0.65390   0.15440 
O          O       0.17510   0.52120   0.15440 
O          O       0.34610   0.82490   0.15440 
C          C       0.57330   0.42670   0.62970 
C          C       0.57330   0.14660   0.62970 
C          C       0.85340   0.42670   0.62970 
C          C       0.42670   0.57330   0.12970 
C          C       0.42670   0.85340   0.12970 
C          C       0.14660   0.57330   0.12970 
C          C       0.42670   0.57330   0.37030 
C          C       1.14660   0.57330   0.37030 
C          C       0.42670  -0.14660   0.37030 
C          C       0.57330   0.42670  -0.12970 
C          C      -0.14660   0.42670  -0.12970 
C          C       0.57330   1.14660  -0.12970 
C          C       0.94970   0.75860   0.75000 
C          C       1.24140   1.19110   0.75000 
C          C       0.80890   1.05030   0.75000 
C          C       0.05030   0.24140   0.25000 
C          C      -0.24140  -0.19110   0.25000 
C          C       0.19110  -0.05030   0.25000 
C          C      -0.24140  -0.05030   0.25000 
C          C       0.19110   0.24140   0.25000 
C          C       0.05030  -0.19110   0.25000 
C          C       1.24140   1.05030   0.75000 
C          C       0.80890   0.75860   0.75000 
C          C       0.94970   1.19110   0.75000 
H          H       1.01380   0.78910   0.75000 
H          H       1.21090   1.22470   0.75000 
H          H       0.77530   0.98620   0.75000 
H          H      -0.01380   0.21090   0.25000 
H          H      -0.21090  -0.22470   0.25000 
H          H       0.22470   0.01380   0.25000 
H          H      -0.21090   0.01380   0.25000 
H          H       0.22470   0.21090   0.25000 
H          H      -0.01380  -0.22470   0.25000 
H          H       1.21090   0.98620   0.75000 
H          H       0.77530   0.78910   0.75000 
H          H       1.01380   1.22470   0.75000 
C          C       0.90390   0.80770   0.75000 
C          C       1.19230   1.09620   0.75000 
C          C       0.90380   1.09610   0.75000 
C          C       0.09610   0.19230   0.25000 
C          C      -0.19230  -0.09620   0.25000 
C          C       0.09620  -0.09610   0.25000 
N          N       0.90570   0.95290   0.75000 
N          N       1.04710   0.95280   0.75000 
N          N       1.04720   1.09430   0.75000 
N          N       0.09430   0.04710   0.25000 
N          N      -0.04710   0.04720   0.25000 
N          N      -0.04720  -0.09430   0.25000 
C          C       0.89960   0.66410   0.75000 
C          C       1.33590   1.23550   0.75000 
C          C       0.76450   1.10040   0.75000 
C          C       0.10040   0.33590   0.25000 
C          C      -0.33590  -0.23550   0.25000 
C          C       0.23550  -0.10040   0.25000 
C          C      -0.33590  -0.10040   0.25000 
C          C       0.23550   0.33590   0.25000 
C          C       0.10040  -0.23550   0.25000 
C          C       1.33590   1.10040   0.75000 
C          C       0.76450   0.66410   0.75000 
C          C       0.89960   1.23550   0.75000 
H          H       0.93150   0.63190   0.75000 
H          H       1.36810   1.29960   0.75000 
H          H       0.70040   1.06850   0.75000 
H          H       0.06850   0.36810   0.25000 
H          H      -0.36810  -0.29960   0.25000 
H          H       0.29960  -0.06850   0.25000 
H          H      -0.36810  -0.06850   0.25000 
H          H       0.29960   0.36810   0.25000 
H          H       0.06850  -0.29960   0.25000 
H          H       1.36810   1.06850   0.75000 
H          H       0.70040   0.63190   0.75000 
H          H       0.93150   1.29960   0.75000 
C          C       0.95550   0.91110   0.75000 
C          C       1.08890   1.04440   0.75000 
C          C       0.95560   1.04450   0.75000 
C          C       0.04450   0.08890   0.25000 
C          C      -0.08890  -0.04440   0.25000 
C          C       0.04440  -0.04450   0.25000 
C          C       0.53630   0.46370   0.56090 
C          C       0.53630   0.07260   0.56090 
C          C       0.92740   0.46370   0.56090 
C          C       0.46370   0.53630   0.06090 
C          C       0.46370   0.92740   0.06090 
C          C       0.07260   0.53630   0.06090 
C          C       0.46370   0.53630   0.43910 
C          C       1.07260   0.53630   0.43910 
C          C       0.46370  -0.07260   0.43910 
C          C       0.53630   0.46370  -0.06090 
C          C      -0.07260   0.46370  -0.06090 
C          C       0.53630   1.07260  -0.06090 
C          C       0.44920   0.41130   0.52810 
C          C       0.58870   0.03790   0.52810 
C          C       0.96210   0.55080   0.52810 
C          C       0.55080   0.58870   0.02810 
C          C       0.41130   0.96210   0.02810 
C          C       0.03790   0.44920   0.02810 
C          C       0.41130   0.44920   0.47190 
C          C       1.03790   0.58870   0.47190 
C          C       0.55080  -0.03790   0.47190 
C          C       0.58870   0.55080  -0.02810 
C          C      -0.03790   0.41130  -0.02810 
C          C       0.44920   1.03790  -0.02810 
C          C       0.55080   0.58870   0.47190 
C          C       0.41130  -0.03790   0.47190 
C          C       1.03790   0.44920   0.47190 
C          C       0.44920   0.41130  -0.02810 
C          C       0.58870   1.03790  -0.02810 
C          C      -0.03790   0.55080  -0.02810 
C          C       0.58870   0.55080   0.52810 
C          C       0.96210   0.41130   0.52810 
C          C       0.44920   0.03790   0.52810 
C          C       0.41130   0.44920   0.02810 
C          C       0.03790   0.58870   0.02810 
C          C       0.55080   0.96210   0.02810 
O          O       0.60770   0.67870   0.04930 
O          O       0.32130   0.92900   0.04930 
O          O       0.32130   0.39230   0.45070 
O          O       1.07100   0.67870   0.45070 
O          O       0.60770  -0.07100   0.45070 
O          O      -0.07100   0.32130  -0.04930 
O          O       0.39230   0.32130  -0.04930 
O          O       0.67870   1.07100  -0.04930 
O          O       0.67870   0.60770   0.54930 
O          O       0.92900   0.32130   0.54930 
O          O       0.39230   0.07100   0.54930 
O          O       0.07100   0.67870   0.04930 
H          H       0.58290   0.69450   0.08620 
H          H       0.30550   0.88840   0.08620 
H          H       0.30550   0.41710   0.41380 
H          H       1.11160   0.69450   0.41380 
H          H       0.58290  -0.11160   0.41380 
H          H      -0.11160   0.30550  -0.08620 
H          H       0.41710   0.30550  -0.08620 
H          H       0.69450   1.11160  -0.08620 
H          H       0.69450   0.58290   0.58620 
H          H       0.88840   0.30550   0.58620 
H          H       0.41710   0.11160   0.58620 
H          H       0.11160   0.69450   0.08620 
H          H       0.59458   0.65877   0.44853 
H          H       0.40520   0.34133   0.55161 
H          H       0.93234   0.59133   0.55618 
H          H       1.06766   0.40867   0.44381 
H          H       0.39244  -0.00481   0.41919 
H          H       0.06836   0.41074   0.05979 
H          H      -0.06751   0.59140  -0.05633 
H          H       0.59132   0.93233   0.05617 
H          H       0.34107   0.40862   0.05628 
H          H       0.40866   1.06764  -0.05620 
H          H       0.65896   0.06761   0.55623 
H          H       0.65897   0.59134  -0.05621 
H          H       0.33330   0.66670   0.31478 
H          H       0.66670   0.33330   0.81478 
