data_crystal

_cell_length_a    14.81740
_cell_length_b    14.81740
_cell_length_c    14.81740
_cell_angle_alpha 60.00000
_cell_angle_beta  60.00000
_cell_angle_gamma 60.00000

_space_group_name_Hall 'P 1'
_space_group_name_H-M_alt 'P 1'

loop_
_symmetry_equiv_pos_as_xyz
 'x,y,z'

loop_
_atom_site_label
_atom_site_type_symbol
_atom_site_fract_x
_atom_site_fract_y
_atom_site_fract_z
Zr         Zr      0.37630   0.37630   0.62370
Zr         Zr      0.62370   0.37630   0.62370
Zr         Zr      0.37630   0.62370   0.62370
Zr         Zr      0.62370   0.62370   0.37630
Zr         Zr      0.37630   0.62370   0.37630
Zr         Zr      0.62370   0.37630   0.37630
H          H       0.35587   0.90923   0.09077
H          H       0.90923   0.35587   0.64413
H          H       0.35587   0.64413   0.90923
H          H       0.90923   0.09077   0.35587
H          H       0.64413   0.35587   0.09077
H          H       0.09077   0.35587   0.90923
H          H       0.64413   0.90923   0.35587
H          H       0.35587   0.09077   0.64413
H          H       0.35587   0.90923   0.64413
H          H       0.90923   0.35587   0.09077
H          H       0.09077   0.64413   0.90923
H          H       0.09077   0.90923   0.35587
H          H       0.35587   0.64413   0.09077
H          H       0.90923   0.09077   0.64413
H          H       0.90923   0.64413   0.35587
H          H       0.35587   0.09077   0.90923
H          H       0.09077   0.35587   0.64413
H          H       0.64413   0.90923   0.09077
H          H       0.39036   0.39367   0.78737
H          H       0.41513   0.41138   0.38545
H          H       0.78007   0.42897   0.38914
H          H       0.40804   0.78515   0.40387
H          H       0.17186   0.66116   0.33884
H          H       0.07019   0.72232   0.27768
H          H       0.66116   0.17186   0.33884
H          H       0.72232   0.07019   0.27768
H          H       0.17186   0.82814   0.66116
H          H       0.07019   0.92981   0.72232
H          H       0.66116   0.17186   0.82814
H          H       0.72232   0.07019   0.92981
H          H       0.82814   0.66116   0.17186
H          H       0.92981   0.72232   0.07019
H          H       0.66116   0.33884   0.82814
H          H       0.72232   0.27768   0.92981
C          C       0.57750   0.05230   0.94770
C          C       0.05230   0.57750   0.42250
C          C       0.42250   0.94770   0.05230
C          C       0.94770   0.42250   0.57750
C          C       0.42250   0.57750   0.94770
C          C       0.94770   0.05230   0.42250
C          C       0.57750   0.42250   0.05230
C          C       0.05230   0.94770   0.57750
C          C       0.05230   0.42250   0.94770
C          C       0.57750   0.94770   0.42250
C          C       0.94770   0.57750   0.05230
C          C       0.42250   0.05230   0.57750
C          C       0.42250   0.94770   0.57750
C          C       0.94770   0.42250   0.05230
C          C       0.57750   0.05230   0.42250
C          C       0.05230   0.57750   0.94770
C          C       0.57750   0.42250   0.94770
C          C       0.05230   0.94770   0.42250
C          C       0.42250   0.57750   0.05230
C          C       0.94770   0.05230   0.57750
C          C       0.94770   0.57750   0.42250
C          C       0.42250   0.05230   0.94770
C          C       0.05230   0.42250   0.57750
C          C       0.57750   0.94770   0.05230
C          C       0.50000   0.18740   0.81260
C          C       0.50000   0.09340   0.90660
C          C       0.18740   0.50000   0.50000
C          C       0.09340   0.50000   0.50000
C          C       0.50000   0.81260   0.18740
C          C       0.50000   0.90660   0.09340
C          C       0.81260   0.50000   0.50000
C          C       0.90660   0.50000   0.50000
C          C       0.50000   0.50000   0.81260
C          C       0.50000   0.50000   0.90660
C          C       0.81260   0.18740   0.50000
C          C       0.90660   0.09340   0.50000
C          C       0.50000   0.50000   0.18740
C          C       0.50000   0.50000   0.09340
C          C       0.18740   0.81260   0.50000
C          C       0.09340   0.90660   0.50000
C          C       0.18740   0.50000   0.81260
C          C       0.09340   0.50000   0.90660
C          C       0.50000   0.81260   0.50000
C          C       0.50000   0.90660   0.50000
C          C       0.81260   0.50000   0.18740
C          C       0.90660   0.50000   0.09340
C          C       0.50000   0.18740   0.50000
C          C       0.50000   0.09340   0.50000
N          N       0.10337   0.66239   0.33761
N          N       0.66239   0.10337   0.33761
N          N       0.10337   0.89663   0.66239
N          N       0.66239   0.10337   0.89663
N          N       0.89663   0.66239   0.10337
N          N       0.66239   0.33761   0.89663
O          O       0.42880   0.42880   0.71360
O          O       0.42880   0.42880   0.42880
O          O       0.42880   0.71360   0.42880
O          O       0.71360   0.42880   0.42880
O          O       0.57120   0.57120   0.57120
O          O       0.57120   0.57120   0.28640
O          O       0.57120   0.28640   0.57120
O          O       0.28640   0.57120   0.57120
O          O       0.42450   0.22690   0.77310
O          O       0.22690   0.42450   0.57550
O          O       0.57550   0.42450   0.77310
O          O       0.77310   0.22690   0.57550
O          O       0.22690   0.57550   0.77310
O          O       0.42450   0.77310   0.57550
O          O       0.57550   0.77310   0.42450
O          O       0.22690   0.42450   0.77310
O          O       0.42450   0.57550   0.77310
O          O       0.77310   0.22690   0.42450
O          O       0.57550   0.22690   0.77310
O          O       0.22690   0.57550   0.42450
O          O       0.57550   0.77310   0.22690
O          O       0.77310   0.57550   0.42450
O          O       0.42450   0.57550   0.22690
O          O       0.22690   0.77310   0.42450
O          O       0.77310   0.42450   0.22690
O          O       0.57550   0.22690   0.42450
O          O       0.77310   0.57550   0.22690
O          O       0.42450   0.22690   0.57550
O          O       0.22690   0.77310   0.57550
O          O       0.57550   0.42450   0.22690
O          O       0.77270   0.42310   0.57582
O          O       0.42450   0.77310   0.22690
