data_crystal

_cell_length_a    18.12719
_cell_length_b    19.08216
_cell_length_c    19.08216
_cell_angle_alpha 90.00000
_cell_angle_beta  90.00000
_cell_angle_gamma 90.00000

_space_group_name_Hall 'P 1'
_space_group_name_H-M_alt 'P 1'

loop_
_symmetry_equiv_pos_as_xyz
 'x,y,z'

loop_
_atom_site_label
_atom_site_type_symbol
_atom_site_fract_x
_atom_site_fract_y
_atom_site_fract_z
Ti         Ti      0.50000   0.78984   0.07187
Ti         Ti      0.50000   0.21016   0.92813
Ti         Ti      0.50000   0.92813   0.78984
Ti         Ti      0.50000   0.07187   0.21016
Ti         Ti      0.50000   0.92813   0.21016
Ti         Ti      0.50000   0.07187   0.78984
Ti         Ti      0.50000   0.78984   0.92813
Ti         Ti      0.50000   0.21016   0.07187
Ti         Ti      0.00000   0.28984   0.57187
Ti         Ti      0.00000   0.57187   0.71016
Ti         Ti      0.00000   0.42813   0.71016
Ti         Ti      1.00000   0.28984   0.42813
Ti         Ti      0.00000   0.71016   0.42813
Ti         Ti      1.00000   0.42813   0.28984
Ti         Ti      1.00000   0.57187   0.28984
Ti         Ti      0.00000   0.71016   0.57187
H          H       0.68902   0.85176   0.69247
H          H       0.31098   0.14824   0.30753
H          H       0.31098   0.85176   0.69247
H          H       0.68902   0.14824   0.30753
H          H       0.31098   0.30753   0.85176
H          H       0.31098   0.69247   0.14824
H          H       0.31098   0.14824   0.69247
H          H       0.68902   0.85176   0.30753
H          H       0.68902   0.14824   0.69247
H          H       0.31098   0.85176   0.30753
H          H       0.31098   0.30753   0.14824
H          H       0.68902   0.69247   0.85176
H          H       0.68902   0.30753   0.14824
H          H       0.31098   0.69247   0.85176
H          H       0.18902   0.80753   0.35176
H          H       0.81098   0.19247   0.64824
H          H       0.81098   0.80753   0.35176
H          H       0.81098   0.35176   0.19247
H          H       0.18902   0.35176   0.19247
H          H       0.18902   0.80753   0.64824
H          H       0.81098   0.80753   0.64824
H          H       0.81098   0.35176   0.80753
H          H       0.18902   0.35176   0.80753
H          H       0.81098   0.64824   0.19247
H          H       0.00000   0.42620   0.57380
H          H       0.00000   0.57380   0.42620
H          H       0.00000   0.42620   0.42620
H          H       0.00000   0.57380   0.57380
H          H       0.50000   0.92620   0.07380
H          H       0.50000   0.07380   0.92620
H          H       0.50000   0.92620   0.92620
H          H       0.50000   0.07380   0.07380
H          H       0.00000   0.61274   0.93427
H          H       1.00000   0.06573   0.61274
H          H       0.00000   0.06573   0.38727
H          H       0.00000   0.93427   0.61274
H          H       0.00000   0.38727   0.93427
H          H       1.00000   0.61274   0.06573
H          H       0.50000   0.11274   0.56573
H          H       0.50000   0.43427   0.11274
H          H       0.50000   0.43427   0.88726
H          H       0.50000   0.56573   0.11274
H          H       0.50000   0.11274   0.43427
H          H       0.50000   0.88726   0.56573
H          H       0.20525   0.14142   0.39086
H          H       0.13122   0.20065   0.38501
H          H       0.79475   0.14142   0.39086
H          H       0.86878   0.20065   0.38501
H          H       0.79475   0.60915   0.85858
H          H       0.86878   0.61499   0.79935
H          H       0.20525   0.60915   0.85858
H          H       0.13122   0.61499   0.79935
H          H       0.20525   0.60915   0.14142
H          H       0.13122   0.61499   0.20065
H          H       0.50000   0.54830   0.82359
H          H       0.50000   0.62810   0.86963
H          H       0.70525   0.35858   0.89085
H          H       0.63122   0.29935   0.88501
H          H       0.50000   0.82359   0.45170
H          H       0.50000   0.86963   0.37190
H          H       0.70525   0.64142   0.10915
H          H       0.63122   0.70065   0.11499
H          H       1.00000   0.95170   0.32359
H          H       0.00000   0.87190   0.36963
H          H       0.20525   0.14142   0.60915
H          H       0.13122   0.20065   0.61499
H          H       0.00000   0.32359   0.04830
H          H       0.00000   0.36963   0.12810
C          C       0.50000   0.34855   0.00000
C          C       0.50000   0.65145   0.00000
C          C       0.50000   0.00000   0.65145
C          C       0.50000   0.00000   0.34855
C          C       0.00000   0.50000   0.84855
C          C       1.00000   0.50000   0.15145
C          C       0.00000   0.15145   0.50000
C          C       0.00000   0.84855   0.50000
C          C       1.00000   0.92671   0.50000
C          C       0.00000   0.07329   0.50000
C          C       0.00000   0.50000   0.07329
C          C       0.00000   0.50000   0.92671
C          C       0.50000   0.00000   0.42671
C          C       0.50000   0.00000   0.57329
C          C       0.50000   0.57329   0.00000
C          C       0.50000   0.42671   0.00000
C          C       1.00000   0.96354   0.56372
C          C       0.00000   0.03646   0.43628
C          C       0.00000   0.56372   0.03646
C          C       0.00000   0.43628   0.96354
C          C       0.00000   0.56372   0.96354
C          C       0.00000   0.43628   0.03646
C          C       0.00000   0.96354   0.43628
C          C       0.00000   0.03646   0.56372
C          C       0.50000   0.53646   0.06372
C          C       0.50000   0.46354   0.93628
C          C       0.50000   0.93628   0.53646
C          C       0.50000   0.06372   0.46354
C          C       0.50000   0.93628   0.46354
C          C       0.50000   0.06372   0.53646
C          C       0.50000   0.53646   0.93628
C          C       0.50000   0.46354   0.06372
C          C       0.31801   0.22548   0.22548
C          C       0.68199   0.77452   0.77452
C          C       0.68199   0.22548   0.22548
C          C       0.31801   0.77452   0.77452
C          C       0.31801   0.22548   0.77452
C          C       0.68199   0.77452   0.22548
C          C       0.68199   0.22548   0.77452
C          C       0.31801   0.77452   0.22548
C          C       0.81801   0.27452   0.72548
C          C       0.18199   0.72548   0.27452
C          C       0.18199   0.27452   0.72548
C          C       0.81801   0.72548   0.27452
C          C       0.81801   0.27452   0.27452
C          C       0.18199   0.72548   0.72548
C          C       0.18199   0.27452   0.27452
C          C       0.81801   0.72548   0.72548
C          C       0.89007   0.69859   0.69859
C          C       0.10992   0.30141   0.30141
C          C       0.10992   0.69859   0.69859
C          C       0.89007   0.30141   0.30141
C          C       0.89007   0.69859   0.30141
C          C       0.10992   0.30141   0.69859
C          C       0.10992   0.69859   0.30141
C          C       0.89007   0.30141   0.69859
C          C       0.39008   0.80141   0.19859
C          C       0.60993   0.19859   0.80141
C          C       0.60993   0.80141   0.19859
C          C       0.39008   0.19859   0.80141
C          C       0.39008   0.80141   0.80141
C          C       0.60993   0.19859   0.19859
C          C       0.60993   0.80141   0.80141
C          C       0.39008   0.19859   0.19859
C          C       0.28381   0.19278   0.28284
C          C       0.71619   0.80722   0.71716
C          C       0.71619   0.19278   0.28284
C          C       0.28381   0.80722   0.71716
C          C       0.28381   0.28284   0.80722
C          C       0.71619   0.71716   0.19278
C          C       0.71619   0.28284   0.80722
C          C       0.28381   0.71716   0.19278
C          C       0.71619   0.28284   0.19278
C          C       0.28381   0.71716   0.80722
C          C       0.28381   0.28284   0.19278
C          C       0.71619   0.71716   0.80722
C          C       0.71619   0.19278   0.71716
C          C       0.28381   0.80722   0.28284
C          C       0.28381   0.19278   0.71716
C          C       0.71619   0.80722   0.28284
C          C       0.21619   0.30722   0.78284
C          C       0.78381   0.69278   0.21716
C          C       0.78381   0.30722   0.78284
C          C       0.21619   0.69278   0.21716
C          C       0.21619   0.21716   0.30722
C          C       0.78381   0.78284   0.69278
C          C       0.78381   0.21716   0.30722
C          C       0.21619   0.78284   0.69278
C          C       0.78381   0.21716   0.69278
C          C       0.21619   0.78284   0.30722
C          C       0.21619   0.21716   0.69278
C          C       0.78381   0.78284   0.30722
C          C       0.78381   0.30722   0.21716
C          C       0.21619   0.69278   0.78284
C          C       0.21619   0.30722   0.21716
C          C       0.78381   0.69278   0.78284
N          N       0.18055   0.18288   0.36720
N          N       0.81945   0.18288   0.36720
N          N       0.81945   0.63280   0.81712
N          N       0.18055   0.63280   0.81712
N          N       0.18055   0.63280   0.18288
N          N       0.50000   0.57491   0.86965
N          N       0.68055   0.31712   0.86720
N          N       0.50000   0.86965   0.42509
N          N       0.68055   0.68288   0.13280
N          N       1.00000   0.92509   0.36965
N          N       0.18055   0.18288   0.63280
N          N       1.00000   0.36965   0.07491
O          O       0.50000   0.31690   0.05912
O          O       0.50000   0.05912   0.68310
O          O       0.50000   0.05912   0.31690
O          O       0.50000   0.68310   0.05912
O          O       0.00000   0.18310   0.55912
O          O       0.00000   0.55912   0.81690
O          O       0.00000   0.44088   0.81690
O          O       0.00000   0.18310   0.44088
O          O       0.06766   0.30085   0.50000
O          O       0.06766   0.69915   0.50000
O          O       0.06766   0.50000   0.69915
O          O       0.06766   0.50000   0.30085
O          O       0.41889   0.22945   0.14601
O          O       0.58111   0.77055   0.85399
O          O       0.58111   0.22945   0.14601
O          O       0.41889   0.77055   0.85399
O          O       0.41889   0.14601   0.77055
O          O       0.58111   0.85399   0.22945
O          O       0.58111   0.14601   0.77055
O          O       0.41889   0.85399   0.22945
O          O       0.58111   0.14601   0.22945
O          O       0.41889   0.85399   0.77055
O          O       0.41889   0.14601   0.22945
O          O       0.58111   0.85399   0.77055
O          O       0.58111   0.22945   0.85399
O          O       0.41889   0.77055   0.14601
O          O       0.41889   0.22945   0.85399
O          O       0.58111   0.77055   0.14601
O          O       0.08111   0.27055   0.64601
O          O       0.08111   0.72945   0.35399
O          O       0.08111   0.35399   0.27055
O          O       0.08111   0.64601   0.72945
O          O       0.08111   0.64601   0.27055
O          O       0.08111   0.35399   0.72945
O          O       0.08111   0.72945   0.64601
O          O       0.08111   0.27055   0.35399
O          O       0.50000   0.10974   0.10974
O          O       0.50000   0.89026   0.89026
O          O       0.50000   0.10974   0.89026
O          O       0.50000   0.89026   0.10974
O          O       0.00000   0.39026   0.60974
O          O       0.00000   0.60974   0.39026
O          O       1.00000   0.39026   0.39026
O          O       1.00000   0.60974   0.60974
O          O       0.93234   0.69915   0.50000
O          O       0.93234   0.30085   0.50000
O          O       0.93234   0.50000   0.30085
O          O       0.93234   0.50000   0.69915
O          O       0.50000   0.68310   0.94088
O          O       0.50000   0.94088   0.31690
O          O       0.50000   0.94088   0.68310
O          O       0.50000   0.31690   0.94088
O          O       1.00000   0.81690   0.44088
O          O       0.00000   0.44088   0.18310
O          O       0.00000   0.55912   0.18310
O          O       0.00000   0.81690   0.55912
O          O       0.43234   0.00000   0.19915
O          O       0.56766   0.00000   0.80085
O          O       0.56766   0.00000   0.19915
O          O       0.43234   0.00000   0.80085
O          O       0.43234   0.80085   0.00000
O          O       0.56766   0.19915   0.00000
O          O       0.56766   0.80085   0.00000
O          O       0.43234   0.19915   0.00000
O          O       0.91889   0.72945   0.35399
O          O       0.91889   0.27055   0.64601
O          O       0.91889   0.64601   0.72945
O          O       0.91889   0.35399   0.27055
O          O       0.91889   0.35399   0.72945
O          O       0.91889   0.64601   0.27055
O          O       0.91889   0.27055   0.35399
O          O       0.91889   0.72945   0.64601
