data_crystal
 
_cell_length_a    19.08216
_cell_length_b    19.08216
_cell_length_c    18.12719
_cell_angle_alpha 90.00000
_cell_angle_beta  90.00000
_cell_angle_gamma 90.00000
 
_symmetry_space_group_name_Hall 'P 1'
_symmetry_space_group_name_H-M  'P 1'
 
loop_
_symmetry_equiv_pos_as_xyz
 'x,y,z' 
 
loop_
_atom_site_label
_atom_site_type_symbol
_atom_site_fract_x
_atom_site_fract_y
_atom_site_fract_z
_atom_site_charge
C          C       0.34855   0.00000   0.50000   0.0000000000
C          C       0.65145   0.00000   0.50000   0.0000000000
C          C       0.00000   0.65145   0.50000   0.0000000000
C          C       0.00000   0.34855   0.50000   0.0000000000
C          C       0.50000   0.84855   0.00000   0.0000000000
C          C       0.50000   0.15145   0.00000   0.0000000000
C          C       0.15145   0.50000   0.00000   0.0000000000
C          C       0.84855   0.50000   0.00000   0.0000000000
C          C       0.92671   0.50000   0.00000   0.0000000000
C          C       0.07329   0.50000   0.00000   0.0000000000
C          C       0.50000   0.07329   0.00000   0.0000000000
C          C       0.50000   0.92671   0.00000   0.0000000000
C          C       0.00000   0.42671   0.50000   0.0000000000
C          C       0.00000   0.57329   0.50000   0.0000000000
C          C       0.57329   0.00000   0.50000   0.0000000000
C          C       0.42671   0.00000   0.50000   0.0000000000
C          C       0.96354   0.56372   0.00000   0.0000000000
C          C       0.03646   0.43628   0.00000   0.0000000000
C          C       0.56372   0.03646   0.00000   0.0000000000
C          C       0.43628   0.96354   0.00000   0.0000000000
C          C       0.56372   0.96354   0.00000   0.0000000000
C          C       0.43628   0.03646   0.00000   0.0000000000
C          C       0.96354   0.43628   0.00000   0.0000000000
C          C       0.03646   0.56372   0.00000   0.0000000000
C          C       0.53646   0.06372   0.50000   0.0000000000
C          C       0.46354   0.93628   0.50000   0.0000000000
C          C       0.93628   0.53646   0.50000   0.0000000000
C          C       0.06372   0.46354   0.50000   0.0000000000
C          C       0.93628   0.46354   0.50000   0.0000000000
C          C       0.06372   0.53646   0.50000   0.0000000000
C          C       0.53646   0.93628   0.50000   0.0000000000
C          C       0.46354   0.06372   0.50000   0.0000000000
C          C       0.22548   0.22548   0.31801   0.0000000000
C          C       0.77452   0.77452   0.68199   0.0000000000
C          C       0.22548   0.22548   0.68199   0.0000000000
C          C       0.77452   0.77452   0.31801   0.0000000000
C          C       0.22548   0.77452   0.31801   0.0000000000
C          C       0.77452   0.22548   0.68199   0.0000000000
C          C       0.22548   0.77452   0.68199   0.0000000000
C          C       0.77452   0.22548   0.31801   0.0000000000
C          C       0.27452   0.72548   0.81801   0.0000000000
C          C       0.72548   0.27452   0.18199   0.0000000000
C          C       0.27452   0.72548   0.18199   0.0000000000
C          C       0.72548   0.27452   0.81801   0.0000000000
C          C       0.27452   0.27452   0.81801   0.0000000000
C          C       0.72548   0.72548   0.18199   0.0000000000
C          C       0.27452   0.27452   0.18199   0.0000000000
C          C       0.72548   0.72548   0.81801   0.0000000000
C          C       0.69859   0.69859   0.89007   0.0000000000
C          C       0.30141   0.30141   0.10992   0.0000000000
C          C       0.69859   0.69859   0.10992   0.0000000000
C          C       0.30141   0.30141   0.89007   0.0000000000
C          C       0.69859   0.30141   0.89007   0.0000000000
C          C       0.30141   0.69859   0.10992   0.0000000000
C          C       0.69859   0.30141   0.10992   0.0000000000
C          C       0.30141   0.69859   0.89007   0.0000000000
C          C       0.80141   0.19859   0.39008   0.0000000000
C          C       0.19859   0.80141   0.60993   0.0000000000
C          C       0.80141   0.19859   0.60993   0.0000000000
C          C       0.19859   0.80141   0.39008   0.0000000000
C          C       0.80141   0.80141   0.39008   0.0000000000
C          C       0.19859   0.19859   0.60993   0.0000000000
C          C       0.80141   0.80141   0.60993   0.0000000000
C          C       0.19859   0.19859   0.39008   0.0000000000
C          C       0.19278   0.28284   0.28381   0.0000000000
C          C       0.80722   0.71716   0.71619   0.0000000000
C          C       0.19278   0.28284   0.71619   0.0000000000
C          C       0.80722   0.71716   0.28381   0.0000000000
C          C       0.28284   0.80722   0.28381   0.0000000000
C          C       0.71716   0.19278   0.71619   0.0000000000
C          C       0.28284   0.80722   0.71619   0.0000000000
C          C       0.71716   0.19278   0.28381   0.0000000000
C          C       0.28284   0.19278   0.71619   0.0000000000
C          C       0.71716   0.80722   0.28381   0.0000000000
C          C       0.28284   0.19278   0.28381   0.0000000000
C          C       0.71716   0.80722   0.71619   0.0000000000
C          C       0.19278   0.71716   0.71619   0.0000000000
C          C       0.80722   0.28284   0.28381   0.0000000000
C          C       0.19278   0.71716   0.28381   0.0000000000
C          C       0.80722   0.28284   0.71619   0.0000000000
C          C       0.30722   0.78284   0.21619   0.0000000000
C          C       0.69278   0.21716   0.78381   0.0000000000
C          C       0.30722   0.78284   0.78381   0.0000000000
C          C       0.69278   0.21716   0.21619   0.0000000000
C          C       0.21716   0.30722   0.21619   0.0000000000
C          C       0.78284   0.69278   0.78381   0.0000000000
C          C       0.21716   0.30722   0.78381   0.0000000000
C          C       0.78284   0.69278   0.21619   0.0000000000
C          C       0.21716   0.69278   0.78381   0.0000000000
C          C       0.78284   0.30722   0.21619   0.0000000000
C          C       0.21716   0.69278   0.21619   0.0000000000
C          C       0.78284   0.30722   0.78381   0.0000000000
C          C       0.30722   0.21716   0.78381   0.0000000000
C          C       0.69278   0.78284   0.21619   0.0000000000
C          C       0.30722   0.21716   0.21619   0.0000000000
C          C       0.69278   0.78284   0.78381   0.0000000000
H          H       0.85176   0.69247   0.68902   0.0000000000
H          H       0.14824   0.30753   0.31098   0.0000000000
H          H       0.85176   0.69247   0.31098   0.0000000000
H          H       0.14824   0.30753   0.68902   0.0000000000
H          H       0.69247   0.14824   0.68902   0.0000000000
H          H       0.30753   0.85176   0.31098   0.0000000000
H          H       0.69247   0.14824   0.31098   0.0000000000
H          H       0.30753   0.85176   0.68902   0.0000000000
H          H       0.14824   0.69247   0.31098   0.0000000000
H          H       0.85176   0.30753   0.68902   0.0000000000
H          H       0.14824   0.69247   0.68902   0.0000000000
H          H       0.85176   0.30753   0.31098   0.0000000000
H          H       0.30753   0.14824   0.31098   0.0000000000
H          H       0.69247   0.85176   0.68902   0.0000000000
H          H       0.30753   0.14824   0.68902   0.0000000000
H          H       0.69247   0.85176   0.31098   0.0000000000
H          H       0.80753   0.35176   0.18902   0.0000000000
H          H       0.19247   0.64824   0.81098   0.0000000000
H          H       0.80753   0.35176   0.81098   0.0000000000
H          H       0.19247   0.64824   0.18902   0.0000000000
H          H       0.64824   0.80753   0.18902   0.0000000000
H          H       0.35176   0.19247   0.81098   0.0000000000
H          H       0.64824   0.80753   0.81098   0.0000000000
H          H       0.35176   0.19247   0.18902   0.0000000000
H          H       0.19247   0.35176   0.81098   0.0000000000
H          H       0.80753   0.64824   0.18902   0.0000000000
H          H       0.19247   0.35176   0.18902   0.0000000000
H          H       0.80753   0.64824   0.81098   0.0000000000
H          H       0.35176   0.80753   0.81098   0.0000000000
H          H       0.64824   0.19247   0.18902   0.0000000000
H          H       0.35176   0.80753   0.18902   0.0000000000
H          H       0.64824   0.19247   0.81098   0.0000000000
H          H       0.42620   0.57380   0.00000   0.0000000000
H          H       0.57380   0.42620   0.00000   0.0000000000
H          H       0.42620   0.42620   0.00000   0.0000000000
H          H       0.57380   0.57380   0.00000   0.0000000000
H          H       0.92620   0.07380   0.50000   0.0000000000
H          H       0.07380   0.92620   0.50000   0.0000000000
H          H       0.92620   0.92620   0.50000   0.0000000000
H          H       0.07380   0.07380   0.50000   0.0000000000
H          H       0.38727   0.06573   0.00000   0.0000000000
H          H       0.61274   0.93427   0.00000   0.0000000000
H          H       0.06573   0.61274   0.00000   0.0000000000
H          H       0.93427   0.38727   0.00000   0.0000000000
H          H       0.06573   0.38727   0.00000   0.0000000000
H          H       0.93427   0.61274   0.00000   0.0000000000
H          H       0.38727   0.93427   0.00000   0.0000000000
H          H       0.61274   0.06573   0.00000   0.0000000000
H          H       0.11274   0.56573   0.50000   0.0000000000
H          H       0.88726   0.43427   0.50000   0.0000000000
H          H       0.43427   0.11274   0.50000   0.0000000000
H          H       0.56573   0.88726   0.50000   0.0000000000
H          H       0.43427   0.88726   0.50000   0.0000000000
H          H       0.56573   0.11274   0.50000   0.0000000000
H          H       0.11274   0.43427   0.50000   0.0000000000
H          H       0.88726   0.56573   0.50000   0.0000000000
O          O       0.31690   0.05912   0.50000   0.0000000000
O          O       0.68310   0.94088   0.50000   0.0000000000
O          O       0.05912   0.68310   0.50000   0.0000000000
O          O       0.94088   0.31690   0.50000   0.0000000000
O          O       0.05912   0.31690   0.50000   0.0000000000
O          O       0.94088   0.68310   0.50000   0.0000000000
O          O       0.31690   0.94088   0.50000   0.0000000000
O          O       0.68310   0.05912   0.50000   0.0000000000
O          O       0.18310   0.55912   0.00000   0.0000000000
O          O       0.81690   0.44088   0.00000   0.0000000000
O          O       0.44088   0.18310   0.00000   0.0000000000
O          O       0.55912   0.81690   0.00000   0.0000000000
O          O       0.44088   0.81690   0.00000   0.0000000000
O          O       0.55912   0.18310   0.00000   0.0000000000
O          O       0.18310   0.44088   0.00000   0.0000000000
O          O       0.81690   0.55912   0.00000   0.0000000000
O          O       0.69915   0.50000   0.93234   0.0000000000
O          O       0.30085   0.50000   0.06766   0.0000000000
O          O       0.69915   0.50000   0.06766   0.0000000000
O          O       0.30085   0.50000   0.93234   0.0000000000
O          O       0.50000   0.30085   0.93234   0.0000000000
O          O       0.50000   0.69915   0.06766   0.0000000000
O          O       0.50000   0.30085   0.06766   0.0000000000
O          O       0.50000   0.69915   0.93234   0.0000000000
O          O       0.00000   0.19915   0.43234   0.0000000000
O          O       0.00000   0.80085   0.56766   0.0000000000
O          O       0.00000   0.19915   0.56766   0.0000000000
O          O       0.00000   0.80085   0.43234   0.0000000000
O          O       0.80085   0.00000   0.43234   0.0000000000
O          O       0.19915   0.00000   0.56766   0.0000000000
O          O       0.80085   0.00000   0.56766   0.0000000000
O          O       0.19915   0.00000   0.43234   0.0000000000
O          O       0.22945   0.14601   0.41889   0.0000000000
O          O       0.77055   0.85399   0.58111   0.0000000000
O          O       0.22945   0.14601   0.58111   0.0000000000
O          O       0.77055   0.85399   0.41889   0.0000000000
O          O       0.14601   0.77055   0.41889   0.0000000000
O          O       0.85399   0.22945   0.58111   0.0000000000
O          O       0.14601   0.77055   0.58111   0.0000000000
O          O       0.85399   0.22945   0.41889   0.0000000000
O          O       0.14601   0.22945   0.58111   0.0000000000
O          O       0.85399   0.77055   0.41889   0.0000000000
O          O       0.14601   0.22945   0.41889   0.0000000000
O          O       0.85399   0.77055   0.58111   0.0000000000
O          O       0.22945   0.85399   0.58111   0.0000000000
O          O       0.77055   0.14601   0.41889   0.0000000000
O          O       0.22945   0.85399   0.41889   0.0000000000
O          O       0.77055   0.14601   0.58111   0.0000000000
O          O       0.27055   0.64601   0.08111   0.0000000000
O          O       0.72945   0.35399   0.91889   0.0000000000
O          O       0.27055   0.64601   0.91889   0.0000000000
O          O       0.72945   0.35399   0.08111   0.0000000000
O          O       0.35399   0.27055   0.08111   0.0000000000
O          O       0.64601   0.72945   0.91889   0.0000000000
O          O       0.35399   0.27055   0.91889   0.0000000000
O          O       0.64601   0.72945   0.08111   0.0000000000
O          O       0.35399   0.72945   0.91889   0.0000000000
O          O       0.64601   0.27055   0.08111   0.0000000000
O          O       0.35399   0.72945   0.08111   0.0000000000
O          O       0.64601   0.27055   0.91889   0.0000000000
O          O       0.27055   0.35399   0.91889   0.0000000000
O          O       0.72945   0.64601   0.08111   0.0000000000
O          O       0.27055   0.35399   0.08111   0.0000000000
O          O       0.72945   0.64601   0.91889   0.0000000000
O          O       0.10974   0.10974   0.50000   0.0000000000
O          O       0.89026   0.89026   0.50000   0.0000000000
O          O       0.10974   0.89026   0.50000   0.0000000000
O          O       0.89026   0.10974   0.50000   0.0000000000
O          O       0.39026   0.60974   0.00000   0.0000000000
O          O       0.60974   0.39026   0.00000   0.0000000000
O          O       0.39026   0.39026   0.00000   0.0000000000
O          O       0.60974   0.60974   0.00000   0.0000000000
Ti         Ti      0.78984   0.07187   0.50000   0.0000000000
Ti         Ti      0.21016   0.92813   0.50000   0.0000000000
Ti         Ti      0.92813   0.78984   0.50000   0.0000000000
Ti         Ti      0.07187   0.21016   0.50000   0.0000000000
Ti         Ti      0.92813   0.21016   0.50000   0.0000000000
Ti         Ti      0.07187   0.78984   0.50000   0.0000000000
Ti         Ti      0.78984   0.92813   0.50000   0.0000000000
Ti         Ti      0.21016   0.07187   0.50000   0.0000000000
Ti         Ti      0.28984   0.57187   0.00000   0.0000000000
Ti         Ti      0.71016   0.42813   0.00000   0.0000000000
Ti         Ti      0.42813   0.28984   0.00000   0.0000000000
Ti         Ti      0.57187   0.71016   0.00000   0.0000000000
Ti         Ti      0.42813   0.71016   0.00000   0.0000000000
Ti         Ti      0.57187   0.28984   0.00000   0.0000000000
Ti         Ti      0.28984   0.42813   0.00000   0.0000000000
Ti         Ti      0.71016   0.57187   0.00000   0.0000000000
