data_crystal

_cell_length_a    18.15072
_cell_length_b    18.15072
_cell_length_c    18.15072
_cell_angle_alpha 60.00000
_cell_angle_beta  60.00000
_cell_angle_gamma 60.00000

_space_group_name_Hall 'P 1'
_space_group_name_H-M_alt 'P 1'

loop_
_symmetry_equiv_pos_as_xyz
 'x,y,z'

loop_
_atom_site_label
_atom_site_type_symbol
_atom_site_fract_x
_atom_site_fract_y
_atom_site_fract_z
Zn         Zn      0.79350   0.79350   0.79350
Zn         Zn      0.79350   0.79350   0.61950
Zn         Zn      0.79350   0.61950   0.79350
Zn         Zn      0.61950   0.79350   0.79350
Zn         Zn      0.20650   0.20650   0.20650
Zn         Zn      0.20650   0.20650   0.38050
Zn         Zn      0.38050   0.20650   0.20650
Zn         Zn      0.20650   0.38050   0.20650
H          H       0.95480   0.95480   0.65700
H          H       0.95480   0.95480   0.43340
H          H       0.65700   0.43340   0.95480
H          H       0.43340   0.65700   0.95480
H          H       0.95480   0.65700   0.43340
H          H       0.95480   0.43340   0.65700
H          H       0.65700   0.95480   0.95480
H          H       0.43340   0.95480   0.95480
H          H       0.95480   0.43340   0.95480
H          H       0.95480   0.65700   0.95480
H          H       0.65700   0.95480   0.43340
H          H       0.43340   0.95480   0.65700
H          H       0.04520   0.04520   0.34300
H          H       0.04520   0.04520   0.56660
H          H       0.56660   0.34300   0.04520
H          H       0.34300   0.56660   0.04520
H          H       0.34300   0.04520   0.56660
H          H       0.56660   0.04520   0.34300
H          H       0.04520   0.34300   0.04520
H          H       0.04520   0.56660   0.04520
H          H       0.56660   0.04520   0.04520
H          H       0.34300   0.04520   0.04520
H          H       0.04520   0.34300   0.56660
H          H       0.04520   0.56660   0.34300
C          C       0.88951   0.88951   0.61049
C          C       0.61049   0.61049   0.88951
C          C       0.88951   0.61049   0.61049
C          C       0.61049   0.88951   0.88951
C          C       0.88951   0.61049   0.88951
C          C       0.61049   0.88951   0.61049
C          C       0.11049   0.11049   0.38951
C          C       0.38951   0.38951   0.11049
C          C       0.38951   0.11049   0.38951
C          C       0.11049   0.38951   0.11049
C          C       0.38951   0.11049   0.11049
C          C       0.11049   0.38951   0.38951
C          C       0.97369   0.97369   0.59249
C          C       0.97369   0.97369   0.46013
C          C       0.59249   0.46013   0.97369
C          C       0.46013   0.59249   0.97369
C          C       0.97369   0.59249   0.46013
C          C       0.97369   0.46013   0.59249
C          C       0.59249   0.97369   0.97369
C          C       0.46013   0.97369   0.97369
C          C       0.97369   0.46013   0.97369
C          C       0.97369   0.59249   0.97369
C          C       0.59249   0.97369   0.46013
C          C       0.46013   0.97369   0.59249
C          C       0.02631   0.02631   0.40751
C          C       0.02631   0.02631   0.53987
C          C       0.53987   0.40751   0.02631
C          C       0.40751   0.53987   0.02631
C          C       0.40751   0.02631   0.53987
C          C       0.53987   0.02631   0.40751
C          C       0.02631   0.40751   0.02631
C          C       0.02631   0.53987   0.02631
C          C       0.53987   0.02631   0.02631
C          C       0.40751   0.02631   0.02631
C          C       0.02631   0.40751   0.53987
C          C       0.02631   0.53987   0.40751
C          C       0.94621   0.94621   0.55379
C          C       0.55379   0.55379   0.94621
C          C       0.94621   0.55379   0.55379
C          C       0.55379   0.94621   0.94621
C          C       0.94621   0.55379   0.94621
C          C       0.55379   0.94621   0.55379
C          C       0.05379   0.05379   0.44621
C          C       0.44621   0.44621   0.05379
C          C       0.44621   0.05379   0.44621
C          C       0.05379   0.44621   0.05379
C          C       0.44621   0.05379   0.05379
C          C       0.05379   0.44621   0.44621
O          O       0.75000   0.75000   0.75000
O          O       0.25000   0.25000   0.25000
O          O       0.86609   0.86609   0.69753
O          O       0.86609   0.86609   0.57029
O          O       0.69753   0.57029   0.86609
O          O       0.57029   0.69753   0.86609
O          O       0.86609   0.69753   0.57029
O          O       0.86609   0.57029   0.69753
O          O       0.69753   0.86609   0.86609
O          O       0.57029   0.86609   0.86609
O          O       0.86609   0.57029   0.86609
O          O       0.86609   0.69753   0.86609
O          O       0.69753   0.86609   0.57029
O          O       0.57029   0.86609   0.69753
O          O       0.13391   0.13391   0.30247
O          O       0.13391   0.13391   0.42971
O          O       0.42971   0.30247   0.13391
O          O       0.30247   0.42971   0.13391
O          O       0.30247   0.13391   0.42971
O          O       0.42971   0.13391   0.30247
O          O       0.13391   0.30247   0.13391
O          O       0.13391   0.42971   0.13391
O          O       0.42971   0.13391   0.13391
O          O       0.30247   0.13391   0.13391
O          O       0.13391   0.30247   0.42971
O          O       0.13391   0.42971   0.30247
