data_crystal
 
_cell_length_a    18.90600
_cell_length_b    18.90600
_cell_length_c    13.62160
_cell_angle_alpha 90.00000
_cell_angle_beta  90.00000
_cell_angle_gamma 90.00000
 
_symmetry_space_group_name_Hall 'P 1'
_symmetry_space_group_name_H-M  'P 1'
_symmetry_int_tables_number      1
 
loop_
_symmetry_equiv_pos_as_xyz
 'x,y,z' 
 
loop_
_atom_site_label
_atom_site_type_symbol
_atom_site_fract_x
_atom_site_fract_y
_atom_site_fract_z
_atom_site_charge
Cu         Cu      0.96842   0.53158   0.43255   0.0000000000
Cu         Cu      0.03158   0.46842   0.56745   0.0000000000
Cu         Cu      0.53158   0.96842   0.43255   0.0000000000
Cu         Cu      0.46842   0.03158   0.56745   0.0000000000
Cu         Cu      0.96842   0.96842   0.43255   0.0000000000
Cu         Cu      0.03158   0.03158   0.56745   0.0000000000
Cu         Cu      0.53158   0.53158   0.43255   0.0000000000
Cu         Cu      0.46842   0.46842   0.56745   0.0000000000
O          O       0.95943   0.43786   0.37800   0.0000000000
O          O       0.04057   0.56214   0.62200   0.0000000000
O          O       0.54057   0.06214   0.37800   0.0000000000
O          O       0.45943   0.93786   0.62200   0.0000000000
O          O       0.06214   0.95943   0.37800   0.0000000000
O          O       0.93786   0.04057   0.62200   0.0000000000
O          O       0.43786   0.54057   0.37800   0.0000000000
O          O       0.56214   0.45943   0.62200   0.0000000000
O          O       0.04057   0.93786   0.62200   0.0000000000
O          O       0.95943   0.06214   0.37800   0.0000000000
O          O       0.45943   0.56214   0.62200   0.0000000000
O          O       0.54057   0.43786   0.37800   0.0000000000
O          O       0.93786   0.45943   0.62200   0.0000000000
O          O       0.06214   0.54057   0.37800   0.0000000000
O          O       0.56214   0.04057   0.62200   0.0000000000
O          O       0.43786   0.95943   0.37800   0.0000000000
O          O       0.01724   0.38056   0.49760   0.0000000000
O          O       0.98276   0.61944   0.50240   0.0000000000
O          O       0.48276   0.11944   0.49760   0.0000000000
O          O       0.51724   0.88056   0.50240   0.0000000000
O          O       0.11944   0.01724   0.49760   0.0000000000
O          O       0.88056   0.98276   0.50240   0.0000000000
O          O       0.38056   0.48276   0.49760   0.0000000000
O          O       0.61944   0.51724   0.50240   0.0000000000
O          O       0.98276   0.88056   0.50240   0.0000000000
O          O       0.01724   0.11944   0.49760   0.0000000000
O          O       0.51724   0.61944   0.50240   0.0000000000
O          O       0.48276   0.38056   0.49760   0.0000000000
O          O       0.88056   0.51724   0.50240   0.0000000000
O          O       0.11944   0.48276   0.49760   0.0000000000
O          O       0.61944   0.98276   0.50240   0.0000000000
O          O       0.38056   0.01724   0.49760   0.0000000000
C          C       0.81330   0.25000   0.20910   0.0000000000
C          C       0.18670   0.75000   0.79090   0.0000000000
C          C       0.68670   0.25000   0.20910   0.0000000000
C          C       0.31330   0.75000   0.79090   0.0000000000
C          C       0.25000   0.81330   0.20910   0.0000000000
C          C       0.75000   0.18670   0.79090   0.0000000000
C          C       0.25000   0.68670   0.20910   0.0000000000
C          C       0.75000   0.31330   0.79090   0.0000000000
C          C       0.75000   0.25000   0.05530   0.0000000000
C          C       0.25000   0.75000   0.94470   0.0000000000
C          C       0.25000   0.75000   0.05530   0.0000000000
C          C       0.75000   0.25000   0.94470   0.0000000000
C          C       0.75000   0.25000   0.26010   0.0000000000
C          C       0.25000   0.75000   0.73990   0.0000000000
C          C       0.25000   0.75000   0.26010   0.0000000000
C          C       0.75000   0.25000   0.73990   0.0000000000
C          C       0.98070   0.38340   0.41920   0.0000000000
C          C       0.01930   0.61660   0.58080   0.0000000000
C          C       0.51930   0.11660   0.41920   0.0000000000
C          C       0.48070   0.88340   0.58080   0.0000000000
C          C       0.11660   0.98070   0.41920   0.0000000000
C          C       0.88340   0.01930   0.58080   0.0000000000
C          C       0.38340   0.51930   0.41920   0.0000000000
C          C       0.61660   0.48070   0.58080   0.0000000000
C          C       0.01930   0.88340   0.58080   0.0000000000
C          C       0.98070   0.11660   0.41920   0.0000000000
C          C       0.48070   0.61660   0.58080   0.0000000000
C          C       0.51930   0.38340   0.41920   0.0000000000
C          C       0.88340   0.48070   0.58080   0.0000000000
C          C       0.11660   0.51930   0.41920   0.0000000000
C          C       0.61660   0.01930   0.58080   0.0000000000
C          C       0.38340   0.98070   0.41920   0.0000000000
C          C       0.81430   0.25000   0.10470   0.0000000000
C          C       0.18570   0.75000   0.89530   0.0000000000
C          C       0.68570   0.25000   0.10470   0.0000000000
C          C       0.31430   0.75000   0.89530   0.0000000000
C          C       0.25000   0.81430   0.10470   0.0000000000
C          C       0.75000   0.18570   0.89530   0.0000000000
C          C       0.25000   0.68570   0.10470   0.0000000000
C          C       0.75000   0.31430   0.89530   0.0000000000
C          C       0.87990   0.25000   0.26880   0.0000000000
C          C       0.12010   0.75000   0.73120   0.0000000000
C          C       0.62010   0.25000   0.26880   0.0000000000
C          C       0.37990   0.75000   0.73120   0.0000000000
C          C       0.25000   0.87990   0.26880   0.0000000000
C          C       0.75000   0.12010   0.73120   0.0000000000
C          C       0.25000   0.62010   0.26880   0.0000000000
C          C       0.75000   0.37990   0.73120   0.0000000000
C          C       0.95980   0.31350   0.37520   0.0000000000
C          C       0.04020   0.68650   0.62480   0.0000000000
C          C       0.54020   0.18650   0.37520   0.0000000000
C          C       0.45980   0.81350   0.62480   0.0000000000
C          C       0.18650   0.95980   0.37520   0.0000000000
C          C       0.81350   0.04020   0.62480   0.0000000000
C          C       0.31350   0.54020   0.37520   0.0000000000
C          C       0.68650   0.45980   0.62480   0.0000000000
C          C       0.04020   0.81350   0.62480   0.0000000000
C          C       0.95980   0.18650   0.37520   0.0000000000
C          C       0.45980   0.68650   0.62480   0.0000000000
C          C       0.54020   0.31350   0.37520   0.0000000000
C          C       0.81350   0.45980   0.62480   0.0000000000
C          C       0.18650   0.54020   0.37520   0.0000000000
C          C       0.68650   0.04020   0.62480   0.0000000000
C          C       0.31350   0.95980   0.37520   0.0000000000
C          C       0.90730   0.31260   0.30290   0.0000000000
C          C       0.59270   0.18740   0.30290   0.0000000000
C          C       0.40730   0.81260   0.69710   0.0000000000
C          C       0.18740   0.90730   0.30290   0.0000000000
C          C       0.81260   0.09270   0.69710   0.0000000000
C          C       0.31260   0.59270   0.30290   0.0000000000
C          C       0.68740   0.40730   0.69710   0.0000000000
C          C       0.09270   0.81260   0.69710   0.0000000000
C          C       0.90730   0.18740   0.30290   0.0000000000
C          C       0.40730   0.68740   0.69710   0.0000000000
C          C       0.59270   0.31260   0.30290   0.0000000000
C          C       0.81260   0.40730   0.69710   0.0000000000
C          C       0.18740   0.59270   0.30290   0.0000000000
C          C       0.68740   0.09270   0.69710   0.0000000000
C          C       0.31260   0.90730   0.30290   0.0000000000
C          C       0.98500   0.25000   0.41200   0.0000000000
C          C       0.01500   0.75000   0.58800   0.0000000000
C          C       0.51500   0.25000   0.41200   0.0000000000
C          C       0.48500   0.75000   0.58800   0.0000000000
C          C       0.25000   0.98500   0.41200   0.0000000000
C          C       0.75000   0.01500   0.58800   0.0000000000
C          C       0.25000   0.51500   0.41200   0.0000000000
C          C       0.75000   0.48500   0.58800   0.0000000000
C          C       0.88350   0.25000   0.05060   0.0000000000
C          C       0.11650   0.75000   0.94940   0.0000000000
C          C       0.61650   0.25000   0.05060   0.0000000000
C          C       0.38350   0.75000   0.94940   0.0000000000
C          C       0.25000   0.88350   0.05060   0.0000000000
C          C       0.75000   0.11650   0.94940   0.0000000000
C          C       0.25000   0.61650   0.05060   0.0000000000
C          C       0.75000   0.38350   0.94940   0.0000000000
C          C       0.75000   0.25000   0.37140   0.0000000000
C          C       0.25000   0.75000   0.62860   0.0000000000
C          C       0.25000   0.75000   0.37140   0.0000000000
C          C       0.75000   0.25000   0.62860   0.0000000000
H          H       0.75000   0.42612   0.89772   0.0000000000
H          H       0.79621   0.38684   0.99451   0.0000000000
H          H       0.70379   0.38684   0.99451   0.0000000000
H          H       0.75000   0.07388   0.89772   0.0000000000
H          H       0.70379   0.11316   0.99451   0.0000000000
H          H       0.79621   0.11316   0.99451   0.0000000000
H          H       0.75000   0.19664   0.60242   0.0000000000
H          H       0.79621   0.27668   0.60242   0.0000000000
H          H       0.70379   0.27668   0.60242   0.0000000000
H          H       0.25000   0.87375  -0.02678   0.0000000000
H          H       0.29621   0.91303   0.07001   0.0000000000
H          H       0.20379   0.91303   0.07001   0.0000000000
H          H       0.25000   0.62625  -0.02678   0.0000000000
H          H       0.20379   0.58697   0.07001   0.0000000000
H          H       0.29621   0.58697   0.07001   0.0000000000
H          H       0.25000   0.80336   0.39758   0.0000000000
H          H       0.29621   0.72332   0.39758   0.0000000000
H          H       0.20379   0.72332   0.39758   0.0000000000
H          H       0.42612   0.75000   0.89772   0.0000000000
H          H       0.38684   0.70379   0.99451   0.0000000000
H          H       0.38684   0.79621   0.99451   0.0000000000
H          H       0.19664   0.75000   0.60242   0.0000000000
H          H       0.27668   0.70379   0.60242   0.0000000000
H          H       0.27668   0.79621   0.60242   0.0000000000
H          H       0.07388   0.75000   0.89772   0.0000000000
H          H       0.11316   0.79621   0.99451   0.0000000000
H          H       0.11316   0.70379   0.99451   0.0000000000
H          H       0.80336   0.25000   0.39758   0.0000000000
H          H       0.72332   0.20379   0.39758   0.0000000000
H          H       0.72332   0.29621   0.39758   0.0000000000
H          H       0.87375   0.25000  -0.02678   0.0000000000
H          H       0.91303   0.20379   0.07001   0.0000000000
H          H       0.91303   0.29621   0.07001   0.0000000000
H          H       0.62625   0.25000  -0.02678   0.0000000000
H          H       0.58697   0.29621   0.07001   0.0000000000
H          H       0.58697   0.20379   0.07001   0.0000000000
H          H       0.25000   0.47740   0.46692   0.0000000000
H          H       1.02260   0.25000   0.46692   0.0000000000
H          H       0.88884   0.35978   0.27470   0.0000000000
H          H       0.88884   0.14022   0.27470   0.0000000000
H          H       0.61116   0.14022   0.27470   0.0000000000
H          H       0.61116   0.35978   0.27470   0.0000000000
H          H       0.47740   0.25000   0.46692   0.0000000000
H          H       0.64022   0.38884   0.72530   0.0000000000
H          H       0.75000   0.52260   0.53308   0.0000000000
H          H       0.85978   0.38884   0.72530   0.0000000000
H          H       0.85978   0.11116   0.72530   0.0000000000
H          H       0.64022   0.11116   0.72530   0.0000000000
H          H       0.75000  -0.02260   0.53308   0.0000000000
H          H       0.38884   0.85978   0.72530   0.0000000000
H          H       0.52260   0.75000   0.53308   0.0000000000
H          H       0.38884   0.64022   0.72530   0.0000000000
H          H       0.11116   0.85978   0.72530   0.0000000000
H          H      -0.02260   0.75000   0.53308   0.0000000000
C          C       0.09270   0.68740   0.69710   0.0000000000
H          H       0.11116   0.64022   0.72530   0.0000000000
H          H       0.14022   0.61116   0.27470   0.0000000000
H          H       0.35978   0.61116   0.27470   0.0000000000
H          H       0.14022   0.88884   0.27470   0.0000000000
H          H       0.25000   1.02260   0.46692   0.0000000000
H          H       0.35978   0.88884   0.27470   0.0000000000
