data_crystal

_cell_length_a    30.35300
_cell_length_b    30.35300
_cell_length_c    30.35300
_cell_angle_alpha 90.00000
_cell_angle_beta  90.00000
_cell_angle_gamma 90.00000

_space_group_name_Hall 'P 1'
_space_group_name_H-M_alt 'P 1'

loop_
_symmetry_equiv_pos_as_xyz
 'x,y,z'

loop_
_atom_site_label
_atom_site_type_symbol
_atom_site_fract_x
_atom_site_fract_y
_atom_site_fract_z
Zn         Zn      0.50000   0.05194   0.21258
Zn         Zn      0.21258   0.50000   0.05194
Zn         Zn      0.05194   0.21258   0.50000
Zn         Zn      0.50000   0.94807   0.21258
Zn         Zn      0.50000   0.05194   0.78742
Zn         Zn      0.21258   0.50000   0.94807
Zn         Zn      0.78742   0.50000   0.05194
Zn         Zn      0.94807   0.21258   0.50000
Zn         Zn      0.05194   0.78742   0.50000
Zn         Zn      0.44806   0.00000   0.28742
Zn         Zn      0.55193   0.00000   0.28742
Zn         Zn      0.44806   0.00000   0.71258
Zn         Zn      0.55193   0.00000   0.71258
Zn         Zn      0.00000   0.71258   0.55193
Zn         Zn      0.00000   0.71258   0.44806
Zn         Zn      0.00000   0.28742   0.55193
Zn         Zn      0.00000   0.28742   0.44806
Zn         Zn      0.71258   0.44806   0.00000
Zn         Zn      0.71258   0.55193   0.00000
Zn         Zn      0.28742   0.44806   0.00000
Zn         Zn      0.28742   0.55193   0.00000
Zn         Zn      0.50000   0.94807   0.78742
Zn         Zn      0.78742   0.50000   0.94807
Zn         Zn      0.94807   0.78742   0.50000
H          H       0.50000   0.94620   0.06300
H          H       0.50000   0.05380   0.93700
H          H       0.06300   0.50000   0.05380
H          H       0.93700   0.50000   0.94620
H          H       0.05380   0.06300   0.50000
H          H       0.94620   0.93700   0.50000
H          H       0.44620   0.00000   0.43700
H          H       0.55380   0.00000   0.56300
H          H       0.00000   0.56300   0.55380
H          H       0.00000   0.43700   0.44620
H          H       0.56300   0.55380   0.00000
H          H       0.43700   0.44620   0.00000
H          H       0.50000   0.07380   0.08280
H          H       0.50000   0.92620   0.91720
H          H       0.08280   0.50000   0.92620
H          H       0.91720   0.50000   0.07380
H          H       0.92620   0.08280   0.50000
H          H       0.07380   0.91720   0.50000
H          H       0.57380   0.00000   0.41720
H          H       0.42620   0.00000   0.58280
H          H       0.00000   0.58280   0.42620
H          H       0.00000   0.41720   0.57380
H          H       0.58280   0.42620   0.00000
H          H       0.41720   0.57380   0.00000
H          H       0.50000   0.08650   0.00610
H          H       0.50000   0.91350   0.99390
H          H       0.00610   0.50000   0.91350
H          H       0.99390   0.50000   0.08650
H          H       0.91350   0.00610   0.50000
H          H       0.08650   0.99390   0.50000
H          H       0.58650   0.00000   0.49390
H          H       0.41350   0.00000   0.50610
H          H       0.00000   0.50610   0.41350
H          H       0.00000   0.49390   0.58650
H          H       0.50610   0.41350   0.00000
H          H       0.49390   0.58650   0.00000
H          H       0.75000   0.80380   0.30380
H          H       0.25000   0.19620   0.30380
H          H       0.25000   0.80380   0.69620
H          H       0.75000   0.19620   0.69620
H          H       0.30380   0.75000   0.80380
H          H       0.30380   0.25000   0.19620
H          H       0.69620   0.25000   0.80380
H          H       0.69620   0.75000   0.19620
H          H       0.80380   0.30380   0.75000
H          H       0.19620   0.30380   0.25000
H          H       0.80380   0.69620   0.25000
H          H       0.19620   0.69620   0.75000
H          H       0.25000   0.19620   0.69620
H          H       0.75000   0.80380   0.69620
H          H       0.75000   0.19620   0.30380
H          H       0.25000   0.80380   0.30380
H          H       0.69620   0.25000   0.19620
H          H       0.69620   0.75000   0.80380
H          H       0.30380   0.75000   0.19620
H          H       0.30380   0.25000   0.80380
H          H       0.19620   0.69620   0.25000
H          H       0.80380   0.69620   0.75000
H          H       0.19620   0.30380   0.75000
H          H       0.80380   0.30380   0.25000
H          H       0.58310   0.83490   0.22060
H          H       0.41690   0.16510   0.22060
H          H       0.41690   0.83490   0.77940
H          H       0.58310   0.16510   0.77940
H          H       0.22060   0.58310   0.83490
H          H       0.22060   0.41690   0.16510
H          H       0.77940   0.41690   0.83490
H          H       0.77940   0.58310   0.16510
H          H       0.83490   0.22060   0.58310
H          H       0.16510   0.22060   0.41690
H          H       0.83490   0.77940   0.41690
H          H       0.16510   0.77940   0.58310
H          H       0.33490   0.08310   0.27940
H          H       0.66510   0.91690   0.27940
H          H       0.33490   0.91690   0.72060
H          H       0.66510   0.08310   0.72060
H          H       0.08310   0.72060   0.66510
H          H       0.91690   0.72060   0.33490
H          H       0.91690   0.27940   0.66510
H          H       0.08310   0.27940   0.33490
H          H       0.72060   0.33490   0.91690
H          H       0.72060   0.66510   0.08310
H          H       0.27940   0.33490   0.08310
H          H       0.27940   0.66510   0.91690
H          H       0.41690   0.16510   0.77940
H          H       0.58310   0.83490   0.77940
H          H       0.58310   0.16510   0.22060
H          H       0.41690   0.83490   0.22060
H          H       0.77940   0.41690   0.16510
H          H       0.77940   0.58310   0.83490
H          H       0.22060   0.58310   0.16510
H          H       0.22060   0.41690   0.83490
H          H       0.16510   0.77940   0.41690
H          H       0.83490   0.77940   0.58310
H          H       0.16510   0.22060   0.58310
H          H       0.83490   0.22060   0.41690
H          H       0.66510   0.91690   0.72060
H          H       0.33490   0.08310   0.72060
H          H       0.66510   0.08310   0.27940
H          H       0.33490   0.91690   0.27940
H          H       0.91690   0.27940   0.33490
H          H       0.08310   0.27940   0.66510
H          H       0.08310   0.72060   0.33490
H          H       0.91690   0.72060   0.66510
H          H       0.27940   0.66510   0.08310
H          H       0.27940   0.33490   0.91690
H          H       0.72060   0.66510   0.91690
H          H       0.72060   0.33490   0.08310
H          H       0.63500   0.78070   0.22200
H          H       0.36500   0.21930   0.22200
H          H       0.36500   0.78070   0.77800
H          H       0.63500   0.21930   0.77800
H          H       0.22200   0.63500   0.78070
H          H       0.22200   0.36500   0.21930
H          H       0.77800   0.36500   0.78070
H          H       0.77800   0.63500   0.21930
H          H       0.78070   0.22200   0.63500
H          H       0.21930   0.22200   0.36500
H          H       0.78070   0.77800   0.36500
H          H       0.21930   0.77800   0.63500
H          H       0.28070   0.13500   0.27800
H          H       0.71930   0.86500   0.27800
H          H       0.28070   0.86500   0.72200
H          H       0.71930   0.13500   0.72200
H          H       0.13500   0.72200   0.71930
H          H       0.86500   0.72200   0.28070
H          H       0.86500   0.27800   0.71930
H          H       0.13500   0.27800   0.28070
H          H       0.72200   0.28070   0.86500
H          H       0.72200   0.71930   0.13500
H          H       0.27800   0.28070   0.13500
H          H       0.27800   0.71930   0.86500
H          H       0.36500   0.21930   0.77800
H          H       0.63500   0.78070   0.77800
H          H       0.63500   0.21930   0.22200
H          H       0.36500   0.78070   0.22200
H          H       0.77800   0.36500   0.21930
H          H       0.77800   0.63500   0.78070
H          H       0.22200   0.63500   0.21930
H          H       0.22200   0.36500   0.78070
H          H       0.21930   0.77800   0.36500
H          H       0.78070   0.77800   0.63500
H          H       0.21930   0.22200   0.63500
H          H       0.78070   0.22200   0.36500
H          H       0.71930   0.86500   0.72200
H          H       0.28070   0.13500   0.72200
H          H       0.71930   0.13500   0.27800
H          H       0.28070   0.86500   0.27800
H          H       0.86500   0.27800   0.28070
H          H       0.13500   0.27800   0.71930
H          H       0.13500   0.72200   0.28070
H          H       0.86500   0.72200   0.71930
H          H       0.27800   0.71930   0.13500
H          H       0.27800   0.28070   0.86500
H          H       0.72200   0.71930   0.86500
H          H       0.72200   0.28070   0.13500
C          C       0.50000   0.00000   0.13094
C          C       0.50000   0.00000   0.86906
C          C       0.13094   0.50000   0.00000
C          C       0.86906   0.50000   0.00000
C          C       0.00000   0.13094   0.50000
C          C       0.00000   0.86906   0.50000
C          C       0.50000   0.00000   0.36906
C          C       0.50000   0.00000   0.63094
C          C       0.00000   0.63094   0.50000
C          C       0.00000   0.36906   0.50000
C          C       0.63094   0.50000   0.00000
C          C       0.36906   0.50000   0.00000
C          C       0.50000   0.00000   0.08235
C          C       0.50000   0.00000   0.91765
C          C       0.08235   0.50000   0.00000
C          C       0.91765   0.50000   0.00000
C          C       0.00000   0.08235   0.50000
C          C       0.00000   0.91765   0.50000
C          C       0.50000   0.00000   0.41765
C          C       0.50000   0.00000   0.58235
C          C       0.00000   0.58235   0.50000
C          C       0.00000   0.41765   0.50000
C          C       0.58235   0.50000   0.00000
C          C       0.41765   0.50000   0.00000
C          C       0.50000   0.97887   0.00860
C          C       0.50000   0.02113   0.99140
C          C       0.00860   0.50000   0.02113
C          C       0.99140   0.50000   0.97887
C          C       0.02113   0.00860   0.50000
C          C       0.97887   0.99140   0.50000
C          C       0.47887   0.00000   0.49140
C          C       0.52113   0.00000   0.50860
C          C       0.00000   0.50860   0.52113
C          C       0.00000   0.49140   0.47887
C          C       0.50860   0.52113   0.00000
C          C       0.49140   0.47887   0.00000
C          C       0.50000   0.97530   0.05350
C          C       0.50000   0.02470   0.94650
C          C       0.05350   0.50000   0.02470
C          C       0.94650   0.50000   0.97530
C          C       0.02470   0.05350   0.50000
C          C       0.97530   0.94650   0.50000
C          C       0.47530   0.00000   0.44650
C          C       0.52470   0.00000   0.55350
C          C       0.00000   0.55350   0.52470
C          C       0.00000   0.44650   0.47530
C          C       0.55350   0.52470   0.00000
C          C       0.44650   0.47530   0.00000
C          C       0.50000   0.05020   0.06330
C          C       0.50000   0.94980   0.93670
C          C       0.06330   0.50000   0.94980
C          C       0.93670   0.50000   0.05020
C          C       0.94980   0.06330   0.50000
C          C       0.05020   0.93670   0.50000
C          C       0.55020   0.00000   0.43670
C          C       0.44980   0.00000   0.56330
C          C       0.00000   0.56330   0.44980
C          C       0.00000   0.43670   0.55020
C          C       0.56330   0.44980   0.00000
C          C       0.43670   0.55020   0.00000
C          C       0.50000   0.05820   0.01774
C          C       0.50000   0.94180   0.98226
C          C       0.01774   0.50000   0.94180
C          C       0.98226   0.50000   0.05820
C          C       0.94180   0.01774   0.50000
C          C       0.05820   0.98226   0.50000
C          C       0.55820   0.00000   0.48226
C          C       0.44180   0.00000   0.51774
C          C       0.00000   0.51774   0.44180
C          C       0.00000   0.48226   0.55820
C          C       0.51774   0.44180   0.00000
C          C       0.48226   0.55820   0.00000
C          C       0.58289   0.91711   0.25000
C          C       0.41711   0.08289   0.25000
C          C       0.41711   0.91711   0.75000
C          C       0.58289   0.08289   0.75000
C          C       0.25000   0.58289   0.91711
C          C       0.25000   0.41711   0.08289
C          C       0.75000   0.41711   0.91711
C          C       0.75000   0.58289   0.08289
C          C       0.91711   0.25000   0.58289
C          C       0.08289   0.25000   0.41711
C          C       0.91711   0.75000   0.41711
C          C       0.08289   0.75000   0.58289
C          C       0.41711   0.08289   0.75000
C          C       0.58289   0.91711   0.75000
C          C       0.58289   0.08289   0.25000
C          C       0.41711   0.91711   0.25000
C          C       0.75000   0.41711   0.08289
C          C       0.75000   0.58289   0.91711
C          C       0.25000   0.58289   0.08289
C          C       0.25000   0.41711   0.91711
C          C       0.08289   0.75000   0.41711
C          C       0.91711   0.75000   0.58289
C          C       0.08289   0.25000   0.58289
C          C       0.91711   0.25000   0.41711
C          C       0.61769   0.88231   0.25000
C          C       0.38231   0.11769   0.25000
C          C       0.38231   0.88231   0.75000
C          C       0.61769   0.11769   0.75000
C          C       0.25000   0.61769   0.88231
C          C       0.25000   0.38231   0.11769
C          C       0.75000   0.38231   0.88231
C          C       0.75000   0.61769   0.11769
C          C       0.88231   0.25000   0.61769
C          C       0.11769   0.25000   0.38231
C          C       0.88231   0.75000   0.38231
C          C       0.11769   0.75000   0.61769
C          C       0.38231   0.11769   0.75000
C          C       0.61769   0.88231   0.75000
C          C       0.61769   0.11769   0.25000
C          C       0.38231   0.88231   0.25000
C          C       0.75000   0.38231   0.11769
C          C       0.75000   0.61769   0.88231
C          C       0.25000   0.61769   0.11769
C          C       0.25000   0.38231   0.88231
C          C       0.11769   0.75000   0.38231
C          C       0.88231   0.75000   0.61769
C          C       0.11769   0.25000   0.61769
C          C       0.88231   0.25000   0.38231
C          C       0.68284   0.81716   0.25000
C          C       0.31716   0.18284   0.25000
C          C       0.31716   0.81716   0.75000
C          C       0.68284   0.18284   0.75000
C          C       0.25000   0.68284   0.81716
C          C       0.25000   0.31716   0.18284
C          C       0.75000   0.31716   0.81716
C          C       0.75000   0.68284   0.18284
C          C       0.81716   0.25000   0.68284
C          C       0.18284   0.25000   0.31716
C          C       0.81716   0.75000   0.31716
C          C       0.18284   0.75000   0.68284
C          C       0.31716   0.18284   0.75000
C          C       0.68284   0.81716   0.75000
C          C       0.68284   0.18284   0.25000
C          C       0.31716   0.81716   0.25000
C          C       0.75000   0.31716   0.18284
C          C       0.75000   0.68284   0.81716
C          C       0.25000   0.68284   0.18284
C          C       0.25000   0.31716   0.81716
C          C       0.18284   0.75000   0.31716
C          C       0.81716   0.75000   0.68284
C          C       0.18284   0.25000   0.68284
C          C       0.81716   0.25000   0.31716
C          C       0.71702   0.78298   0.25000
C          C       0.28298   0.21702   0.25000
C          C       0.28298   0.78298   0.75000
C          C       0.71702   0.21702   0.75000
C          C       0.25000   0.71702   0.78298
C          C       0.25000   0.28298   0.21702
C          C       0.75000   0.28298   0.78298
C          C       0.75000   0.71702   0.21702
C          C       0.78298   0.25000   0.71702
C          C       0.21702   0.25000   0.28298
C          C       0.78298   0.75000   0.28298
C          C       0.21702   0.75000   0.71702
C          C       0.28298   0.21702   0.75000
C          C       0.71702   0.78298   0.75000
C          C       0.71702   0.21702   0.25000
C          C       0.28298   0.78298   0.25000
C          C       0.75000   0.28298   0.21702
C          C       0.75000   0.71702   0.78298
C          C       0.25000   0.71702   0.21702
C          C       0.25000   0.28298   0.78298
C          C       0.21702   0.75000   0.28298
C          C       0.78298   0.75000   0.71702
C          C       0.21702   0.25000   0.71702
C          C       0.78298   0.25000   0.28298
C          C       0.75000   0.78211   0.28211
C          C       0.25000   0.21789   0.28211
C          C       0.25000   0.78211   0.71789
C          C       0.75000   0.21789   0.71789
C          C       0.28211   0.75000   0.78211
C          C       0.28211   0.25000   0.21789
C          C       0.71789   0.25000   0.78211
C          C       0.71789   0.75000   0.21789
C          C       0.78211   0.28211   0.75000
C          C       0.21789   0.28211   0.25000
C          C       0.78211   0.71789   0.25000
C          C       0.21789   0.71789   0.75000
C          C       0.25000   0.21789   0.71789
C          C       0.75000   0.78211   0.71789
C          C       0.75000   0.21789   0.28211
C          C       0.25000   0.78211   0.28211
C          C       0.71789   0.25000   0.21789
C          C       0.71789   0.75000   0.78211
C          C       0.28211   0.75000   0.21789
C          C       0.28211   0.25000   0.78211
C          C       0.21789   0.71789   0.25000
C          C       0.78211   0.71789   0.75000
C          C       0.21789   0.28211   0.75000
C          C       0.78211   0.28211   0.25000
C          C       0.61051   0.84098   0.23293
C          C       0.38949   0.15902   0.23293
C          C       0.38949   0.84098   0.76707
C          C       0.61051   0.15902   0.76707
C          C       0.23293   0.61051   0.84098
C          C       0.23293   0.38949   0.15902
C          C       0.76707   0.38949   0.84098
C          C       0.76707   0.61051   0.15902
C          C       0.84098   0.23293   0.61051
C          C       0.15902   0.23293   0.38949
C          C       0.84098   0.76707   0.38949
C          C       0.15902   0.76707   0.61051
C          C       0.34098   0.11051   0.26707
C          C       0.65902   0.88949   0.26707
C          C       0.34098   0.88949   0.73293
C          C       0.65902   0.11051   0.73293
C          C       0.11051   0.73293   0.65902
C          C       0.88949   0.73293   0.34098
C          C       0.88949   0.26707   0.65902
C          C       0.11051   0.26707   0.34098
C          C       0.73293   0.34098   0.88949
C          C       0.73293   0.65902   0.11051
C          C       0.26707   0.34098   0.11051
C          C       0.26707   0.65902   0.88949
C          C       0.38949   0.15902   0.76707
C          C       0.61051   0.84098   0.76707
C          C       0.61051   0.15902   0.23293
C          C       0.38949   0.84098   0.23293
C          C       0.76707   0.38949   0.15902
C          C       0.76707   0.61051   0.84098
C          C       0.23293   0.61051   0.15902
C          C       0.23293   0.38949   0.84098
C          C       0.15902   0.76707   0.38949
C          C       0.84098   0.76707   0.61051
C          C       0.15902   0.23293   0.61051
C          C       0.84098   0.23293   0.38949
C          C       0.65902   0.88949   0.73293
C          C       0.34098   0.11051   0.73293
C          C       0.65902   0.11051   0.26707
C          C       0.34098   0.88949   0.26707
C          C       0.88949   0.26707   0.34098
C          C       0.11051   0.26707   0.65902
C          C       0.11051   0.73293   0.34098
C          C       0.88949   0.73293   0.65902
C          C       0.26707   0.65902   0.11051
C          C       0.26707   0.34098   0.88949
C          C       0.73293   0.65902   0.88949
C          C       0.73293   0.34098   0.11051
C          C       0.64162   0.80846   0.23315
C          C       0.35838   0.19154   0.23315
C          C       0.35838   0.80846   0.76685
C          C       0.64162   0.19154   0.76685
C          C       0.23315   0.64162   0.80846
C          C       0.23315   0.35838   0.19154
C          C       0.76685   0.35838   0.80846
C          C       0.76685   0.64162   0.19154
C          C       0.80846   0.23315   0.64162
C          C       0.19154   0.23315   0.35838
C          C       0.80846   0.76685   0.35838
C          C       0.19154   0.76685   0.64162
C          C       0.30846   0.14162   0.26685
C          C       0.69154   0.85838   0.26685
C          C       0.30846   0.85838   0.73315
C          C       0.69154   0.14162   0.73315
C          C       0.14162   0.73315   0.69154
C          C       0.85838   0.73315   0.30846
C          C       0.85838   0.26685   0.69154
C          C       0.14162   0.26685   0.30846
C          C       0.73315   0.30846   0.85838
C          C       0.73315   0.69154   0.14162
C          C       0.26685   0.30846   0.14162
C          C       0.26685   0.69154   0.85838
C          C       0.35838   0.19154   0.76685
C          C       0.64162   0.80846   0.76685
C          C       0.64162   0.19154   0.23315
C          C       0.35838   0.80846   0.23315
C          C       0.76685   0.35838   0.19154
C          C       0.76685   0.64162   0.80846
C          C       0.23315   0.64162   0.19154
C          C       0.23315   0.35838   0.80846
C          C       0.19154   0.76685   0.35838
C          C       0.80846   0.76685   0.64162
C          C       0.19154   0.23315   0.64162
C          C       0.80846   0.23315   0.35838
C          C       0.69154   0.85838   0.73315
C          C       0.30846   0.14162   0.73315
C          C       0.69154   0.14162   0.26685
C          C       0.30846   0.85838   0.26685
C          C       0.85838   0.26685   0.30846
C          C       0.14162   0.26685   0.69154
C          C       0.14162   0.73315   0.30846
C          C       0.85838   0.73315   0.69154
C          C       0.26685   0.69154   0.14162
C          C       0.26685   0.30846   0.85838
C          C       0.73315   0.69154   0.85838
C          C       0.73315   0.30846   0.14162
O          O       0.50000   0.03703   0.15039
O          O       0.15039   0.50000   0.03703
O          O       0.03703   0.15039   0.50000
O          O       0.46297   0.00000   0.34961
O          O       0.53703   0.00000   0.34961
O          O       0.46297   0.00000   0.65039
O          O       0.53703   0.00000   0.65039
O          O       0.00000   0.65039   0.53703
O          O       0.00000   0.65039   0.46297
O          O       0.00000   0.34961   0.53703
O          O       0.00000   0.34961   0.46297
O          O       0.65039   0.46297   0.00000
O          O       0.65039   0.53703   0.00000
O          O       0.34961   0.46297   0.00000
O          O       0.34961   0.53703   0.00000
O          O       0.55094   0.91182   0.22472
O          O       0.44906   0.08818   0.22472
O          O       0.44906   0.91182   0.77528
O          O       0.55094   0.08818   0.77528
O          O       0.22472   0.55094   0.91182
O          O       0.22472   0.44906   0.08818
O          O       0.77528   0.44906   0.91182
O          O       0.77528   0.55094   0.08818
O          O       0.91182   0.22472   0.55094
O          O       0.08818   0.22472   0.44906
O          O       0.91182   0.77528   0.44906
O          O       0.08818   0.77528   0.55094
O          O       0.41182   0.05094   0.27528
O          O       0.58818   0.05094   0.72472
O          O       0.05094   0.72472   0.58818
O          O       0.05094   0.27528   0.41182
O          O       0.72472   0.58818   0.05094
O          O       0.27528   0.41182   0.05094
O          O       0.44906   0.08818   0.77528
O          O       0.55094   0.91182   0.77528
O          O       0.55094   0.08818   0.22472
O          O       0.44906   0.91182   0.22472
O          O       0.77528   0.44906   0.08818
O          O       0.77528   0.55094   0.91182
O          O       0.22472   0.55094   0.08818
O          O       0.22472   0.44906   0.91182
O          O       0.08818   0.77528   0.44906
O          O       0.91182   0.77528   0.55094
O          O       0.08818   0.22472   0.55094
O          O       0.91182   0.22472   0.44906
O          O       0.41182   0.05094   0.72472
O          O       0.58818   0.05094   0.27528
O          O       0.05094   0.27528   0.58818
O          O       0.05094   0.72472   0.41182
O          O       0.27528   0.58818   0.05094
O          O       0.72472   0.41182   0.05094
O          O       0.50000   0.00000   0.25000
O          O       0.50000   0.00000   0.75000
O          O       0.25000   0.50000   0.00000
O          O       0.75000   0.50000   0.00000
O          O       0.00000   0.25000   0.50000
O          O       0.00000   0.75000   0.50000
O          O       0.50000   0.96297   0.15039
O          O       0.50000   0.96297   0.84961
O          O       0.50000   0.03703   0.84961
O          O       0.15039   0.50000   0.96297
O          O       0.84961   0.50000   0.96297
O          O       0.84961   0.50000   0.03703
O          O       0.96297   0.15039   0.50000
O          O       0.96297   0.84961   0.50000
O          O       0.03703   0.84961   0.50000
O          O       0.58818   0.94906   0.27528
O          O       0.41182   0.94906   0.72472
O          O       0.94906   0.72472   0.41182
O          O       0.94906   0.27528   0.58818
O          O       0.72472   0.41182   0.94906
O          O       0.27528   0.58818   0.94906
O          O       0.58818   0.94906   0.72472
O          O       0.41182   0.94906   0.27528
O          O       0.94906   0.27528   0.41182
O          O       0.94906   0.72472   0.58818
O          O       0.27528   0.41182   0.94906
O          O       0.72472   0.58818   0.94906
