data_crystal

_cell_length_a    21.96050
_cell_length_b    21.96050
_cell_length_c    21.96050
_cell_angle_alpha 60.00000
_cell_angle_beta  60.00000
_cell_angle_gamma 60.00000

_space_group_name_Hall 'P 1'
_space_group_name_H-M_alt 'P 1'

loop_
_symmetry_equiv_pos_as_xyz
 'x,y,z'

loop_
_atom_site_label
_atom_site_type_symbol
_atom_site_fract_x
_atom_site_fract_y
_atom_site_fract_z
Zn         Zn      0.18229   0.45313   0.18229
Zn         Zn      0.45313   0.18229   0.18229
Zn         Zn      0.18229   0.18229   0.18229
Zn         Zn      0.18229   0.18229   0.45313
Zn         Zn      0.54687   0.81771   0.81771
Zn         Zn      0.81771   0.54687   0.81771
Zn         Zn      0.81771   0.81771   0.81771
Zn         Zn      0.81771   0.81771   0.54687
Zn         Zn      0.25000   0.25000   0.25000
Zn         Zn      0.75000   0.75000   0.75000
H          H       0.07930   0.52818   0.31322
H          H       0.52818   0.07930   0.07930
H          H       0.31322   0.07930   0.07930
H          H       0.07930   0.31322   0.52818
H          H       0.07930   0.31322   0.07930
H          H       0.52818   0.07930   0.31322
H          H       0.31322   0.07930   0.52818
H          H       0.07930   0.52818   0.07930
H          H       0.07930   0.07930   0.52818
H          H       0.52818   0.31322   0.07930
H          H       0.31322   0.52818   0.07930
H          H       0.07930   0.07930   0.31322
H          H       0.47182   0.92070   0.68678
H          H       0.92070   0.47182   0.92070
H          H       0.92070   0.68678   0.92070
H          H       0.68678   0.92070   0.47182
H          H       0.68678   0.92070   0.92070
H          H       0.92070   0.47182   0.68678
H          H       0.92070   0.68678   0.47182
H          H       0.47182   0.92070   0.92070
H          H       0.92070   0.92070   0.47182
H          H       0.68678   0.47182   0.92070
H          H       0.47182   0.68678   0.92070
H          H       0.92070   0.92070   0.68678
C          C       0.11735   0.41463   0.35067
C          C       0.07883   0.48631   0.35603
C          C       0.03904   0.49420   0.42772
C          C       0.41463   0.11735   0.11735
C          C       0.48631   0.07883   0.07883
C          C       0.49420   0.03904   0.03904
C          C       0.35067   0.11735   0.11735
C          C       0.35603   0.07883   0.07883
C          C       0.42772   0.03904   0.03904
C          C       0.11735   0.35067   0.41463
C          C       0.07883   0.35603   0.48631
C          C       0.03904   0.42772   0.49420
C          C       0.11735   0.35067   0.11735
C          C       0.07883   0.35603   0.07883
C          C       0.03904   0.42772   0.03904
C          C       0.41463   0.11735   0.35067
C          C       0.48631   0.07883   0.35603
C          C       0.49420   0.03904   0.42772
C          C       0.35067   0.11735   0.41463
C          C       0.35603   0.07883   0.48631
C          C       0.42772   0.03904   0.49420
C          C       0.11735   0.41463   0.11735
C          C       0.07883   0.48631   0.07883
C          C       0.03904   0.49420   0.03904
C          C       0.11735   0.11735   0.41463
C          C       0.07883   0.07883   0.48631
C          C       0.03904   0.03904   0.49420
C          C       0.41463   0.35067   0.11735
C          C       0.48631   0.35603   0.07883
C          C       0.49420   0.42772   0.03904
C          C       0.35067   0.41463   0.11735
C          C       0.35603   0.48631   0.07883
C          C       0.42772   0.49420   0.03904
C          C       0.11735   0.11735   0.35067
C          C       0.07883   0.07883   0.35603
C          C       0.03904   0.03904   0.42772
C          C       0.58537   0.88265   0.64933
C          C       0.51369   0.92117   0.64397
C          C       0.50580   0.96096   0.57228
C          C       0.88265   0.58537   0.88265
C          C       0.92117   0.51369   0.92117
C          C       0.96096   0.50580   0.96096
C          C       0.88265   0.64933   0.88265
C          C       0.92117   0.64397   0.92117
C          C       0.96096   0.57228   0.96096
C          C       0.64933   0.88265   0.58537
C          C       0.64397   0.92117   0.51369
C          C       0.57228   0.96096   0.50580
C          C       0.64933   0.88265   0.88265
C          C       0.64397   0.92117   0.92117
C          C       0.57228   0.96096   0.96096
C          C       0.88265   0.58537   0.64933
C          C       0.92117   0.51369   0.64397
C          C       0.96096   0.50580   0.57228
C          C       0.88265   0.64933   0.58537
C          C       0.92117   0.64397   0.51369
C          C       0.96096   0.57228   0.50580
C          C       0.58537   0.88265   0.88265
C          C       0.51369   0.92117   0.92117
C          C       0.50580   0.96096   0.96096
C          C       0.88265   0.88265   0.58537
C          C       0.92117   0.92117   0.51369
C          C       0.96096   0.96096   0.50580
C          C       0.64933   0.58537   0.88265
C          C       0.64397   0.51369   0.92117
C          C       0.57228   0.50580   0.96096
C          C       0.58537   0.64933   0.88265
C          C       0.51369   0.64397   0.92117
C          C       0.50580   0.57228   0.96096
C          C       0.88265   0.88265   0.64933
C          C       0.92117   0.92117   0.64397
C          C       0.96096   0.96096   0.57228
N          N       0.15930   0.39054   0.29086
N          N       0.39054   0.15930   0.15930
N          N       0.29086   0.15930   0.15930
N          N       0.15930   0.29086   0.39054
N          N       0.15930   0.29086   0.15930
N          N       0.39054   0.15930   0.29086
N          N       0.29086   0.15930   0.39054
N          N       0.15930   0.39054   0.15930
N          N       0.15930   0.15930   0.39054
N          N       0.39054   0.29086   0.15930
N          N       0.29086   0.39054   0.15930
N          N       0.15930   0.15930   0.29086
N          N       0.60946   0.84070   0.70914
N          N       0.84070   0.60946   0.84070
N          N       0.84070   0.70914   0.84070
N          N       0.70914   0.84070   0.60946
N          N       0.70914   0.84070   0.84070
N          N       0.84070   0.60946   0.70914
N          N       0.84070   0.70914   0.60946
N          N       0.60946   0.84070   0.84070
N          N       0.84070   0.84070   0.60946
N          N       0.70914   0.60946   0.84070
N          N       0.60946   0.70914   0.84070
N          N       0.84070   0.84070   0.70914
N          N       0.18427   0.31573   0.31573
N          N       0.31573   0.18427   0.18427
N          N       0.18427   0.31573   0.18427
N          N       0.31573   0.18427   0.31573
N          N       0.18427   0.18427   0.31573
N          N       0.31573   0.31573   0.18427
N          N       0.68427   0.81573   0.68427
N          N       0.81573   0.68427   0.81573
N          N       0.68427   0.81573   0.81573
N          N       0.81573   0.68427   0.68427
N          N       0.81573   0.81573   0.68427
N          N       0.68427   0.68427   0.81573
Cl         Cl      0.14380   0.56858   0.14381
Cl         Cl      0.56857   0.14381   0.14381
Cl         Cl      0.14380   0.14381   0.14381
Cl         Cl      0.14380   0.14381   0.56858
Cl         Cl      0.43143   0.85619   0.85619
Cl         Cl      0.85620   0.43142   0.85619
Cl         Cl      0.85620   0.85619   0.85619
Cl         Cl      0.85620   0.85619   0.43142
O          O       0.00000   0.56692   0.43308
O          O       0.56692   1.00000   0.00000
O          O       0.43308  -0.00000   0.00000
O          O       1.00000   0.43308   0.56692
O          O       0.00000   0.43308   0.00000
O          O       0.56692   1.00000   0.43308
O          O       0.43308  -0.00000   0.56692
O          O       0.00000   0.56692   0.00000
O          O       0.00000   0.00000   0.56692
O          O       0.56692   0.43308   0.00000
O          O       0.43308   0.56692   0.00000
O          O       0.00000   0.00000   0.43308
