data_crystal

_cell_length_a    20.63620
_cell_length_b    20.63620
_cell_length_c    20.63620
_cell_angle_alpha 60.00000
_cell_angle_beta  60.00000
_cell_angle_gamma 60.00000

_space_group_name_Hall 'P 1'
_space_group_name_H-M_alt 'P 1'

loop_
_symmetry_equiv_pos_as_xyz
 'x,y,z'

loop_
_atom_site_label
_atom_site_type_symbol
_atom_site_fract_x
_atom_site_fract_y
_atom_site_fract_z
Zn         Zn      0.21160   0.36518   0.21161
Zn         Zn      0.36517   0.21161   0.21161
Zn         Zn      0.21160   0.21161   0.21161
Zn         Zn      0.21160   0.21161   0.36518
Zn         Zn      0.63483   0.78839   0.78839
Zn         Zn      0.78840   0.63482   0.78839
Zn         Zn      0.78840   0.78839   0.78839
Zn         Zn      0.78840   0.78839   0.63482
H          H       0.05700   0.53740   0.05700
H          H       0.53740   0.05700   0.34860
H          H       0.05700   0.05700   0.53740
H          H       0.34860   0.53740   0.05700
H          H       0.34860   0.05700   0.05700
H          H       0.05700   0.34860   0.53740
H          H       0.65140   0.94300   0.94300
H          H       0.94300   0.65140   0.46260
H          H       0.94300   0.94300   0.46260
H          H       0.65140   0.46260   0.94300
H          H       0.46260   0.94300   0.65140
H          H       0.94300   0.46260   0.94300
S          S       0.04740   0.40120   0.04740
S          S       0.40120   0.04740   0.50400
C          C       0.04740   0.50400   0.04740
C          C       0.50400   0.04740   0.40120
C          C       0.04740   0.04740   0.50400
C          C       0.40120   0.50400   0.04740
S          S       0.04740   0.04740   0.40120
S          S       0.50400   0.40120   0.04740
S          S       0.04740   0.50400   0.40120
C          C       0.40120   0.04740   0.04740
C          C       0.04740   0.40120   0.50400
S          S       0.50400   0.04740   0.04740
C          C       0.59880   0.95260   0.95260
C          C       0.95260   0.59880   0.49600
S          S       0.49600   0.95260   0.95260
S          S       0.95260   0.49600   0.59880
C          C       0.95260   0.95260   0.49600
S          S       0.49600   0.59880   0.95260
S          S       0.95260   0.95260   0.59880
C          C       0.59880   0.49600   0.95260
C          C       0.49600   0.95260   0.59880
S          S       0.95260   0.59880   0.95260
S          S       0.59880   0.95260   0.49600
C          C       0.95260   0.49600   0.95260
C          C       0.12824   0.37176   0.12824
C          C       0.07711   0.42289   0.07711
C          C       0.37176   0.12824   0.37176
C          C       0.42289   0.07711   0.42289
C          C       0.12824   0.12824   0.37176
C          C       0.07711   0.07711   0.42289
C          C       0.37176   0.37176   0.12824
C          C       0.42289   0.42289   0.07711
C          C       0.12824   0.37176   0.37176
C          C       0.07711   0.42289   0.42289
C          C       0.37176   0.12824   0.12824
C          C       0.42289   0.07711   0.07711
C          C       0.62824   0.87176   0.87176
C          C       0.57711   0.92289   0.92289
C          C       0.87176   0.62824   0.62824
C          C       0.92289   0.57711   0.57711
C          C       0.87176   0.87176   0.62824
C          C       0.92289   0.92289   0.57711
C          C       0.62824   0.62824   0.87176
C          C       0.57711   0.57711   0.92289
C          C       0.62824   0.87176   0.62824
C          C       0.57711   0.92289   0.57711
C          C       0.87176   0.62824   0.87176
C          C       0.92289   0.57711   0.92289
C          C      -0.00000   0.46688   0.00000
C          C       0.46688   0.00000   0.53312
C          C      -0.00000   0.53312   0.00000
C          C       0.53312   0.00000   0.46688
C          C       0.46688   0.53312   0.00000
C          C      -0.00000   0.00000   0.46688
C          C       0.53312   0.46688   0.00000
C          C       0.00191   0.53077   0.46499
C          C       0.46688   0.00000   0.00000
C          C       0.53312   0.00000   0.00000
O          O       0.25000   0.25000   0.25000
O          O       0.75000   0.75000   0.75000
O          O       0.14684   0.40916   0.14684
O          O       0.40916   0.14684   0.29716
O          O       0.14684   0.29716   0.14684
O          O       0.29716   0.14684   0.40916
O          O       0.14684   0.14684   0.29716
O          O       0.40916   0.29716   0.14684
O          O       0.14684   0.14684   0.40916
O          O       0.29716   0.40916   0.14684
O          O       0.14684   0.29716   0.40916
O          O       0.40916   0.14684   0.14684
O          O       0.14684   0.40916   0.29716
O          O       0.29716   0.14684   0.14684
O          O       0.59084   0.85316   0.85316
O          O       0.85316   0.59084   0.70284
O          O       0.70284   0.85316   0.85316
O          O       0.85316   0.70284   0.59084
O          O       0.85316   0.85316   0.70284
O          O       0.70284   0.59084   0.85316
O          O       0.85316   0.85316   0.59084
O          O       0.59084   0.70284   0.85316
O          O       0.70284   0.85316   0.59084
O          O       0.85316   0.59084   0.85316
O          O       0.59084   0.85316   0.70284
O          O       0.85316   0.70284   0.85316
C          C       0.00838   0.46793   0.52335
C          C       0.00012   0.00114   0.53497
