data_crystal

_cell_length_a    9.67900
_cell_length_b    24.11400
_cell_length_c    24.45000
_cell_angle_alpha 90.00000
_cell_angle_beta  90.00000
_cell_angle_gamma 90.00000

_space_group_name_Hall 'P 1'
_space_group_name_H-M_alt 'P 1'

loop_
_symmetry_equiv_pos_as_xyz
 'x,y,z'

loop_
_atom_site_label
_atom_site_type_symbol
_atom_site_fract_x
_atom_site_fract_y
_atom_site_fract_z
Zn         Zn      0.98489   0.17465   0.50122
Zn         Zn      0.51511   0.82535   0.00122
Zn         Zn      0.01511   0.67465   0.99878
Zn         Zn      0.48489   0.32535   0.49878
Zn         Zn      0.01511   0.82535   0.49878
Zn         Zn      0.48489   0.17465   0.99878
Zn         Zn      0.98489   0.32535   0.00122
Zn         Zn      0.51511   0.67465   0.50122
Zn         Zn      0.99796   0.00179   0.32387
Zn         Zn      0.50204   0.99821   0.82387
Zn         Zn      0.00204   0.50179   0.17613
Zn         Zn      0.49796   0.49821   0.67613
Zn         Zn      0.00204   0.99821   0.67613
Zn         Zn      0.49796   0.00179   0.17613
Zn         Zn      0.99796   0.49821   0.82387
Zn         Zn      0.50204   0.50179   0.32387
N          N       0.11840   0.23460   0.48190
N          N       0.38160   0.76540   0.98190
N          N       0.88160   0.73460   0.01810
N          N       0.61840   0.26540   0.51810
N          N       0.88160   0.76540   0.51810
N          N       0.61840   0.23460   0.01810
N          N       0.11840   0.26540   0.98190
N          N       0.38160   0.73460   0.48190
N          N       0.80320   0.21060   0.52130
N          N       0.69680   0.78940   0.02130
N          N       0.19680   0.71060   0.97870
N          N       0.30320   0.28940   0.47870
N          N       0.19680   0.78940   0.47870
N          N       0.30320   0.21060   0.97870
N          N       0.80320   0.28940   0.02130
N          N       0.69680   0.71060   0.52130
C          C       0.98280   0.08100   0.41810
C          C       0.51720   0.91900   0.91810
C          C       0.01720   0.58100   0.08190
C          C       0.48280   0.41900   0.58190
C          C       0.01720   0.91900   0.58190
C          C       0.48280   0.08100   0.08190
C          C       0.98280   0.41900   0.91810
C          C       0.51720   0.58100   0.41810
H          H       0.02200   0.05450   0.44230
H          H       0.47800   0.94550   0.94230
H          H       0.97800   0.55450   0.05770
H          H       0.52200   0.44550   0.55770
H          H       0.97800   0.94550   0.55770
H          H       0.52200   0.05450   0.05770
H          H       0.02200   0.44550   0.94230
H          H       0.47800   0.55450   0.44230
C          C       0.74660   0.01240   0.24920
C          C       0.75340   0.98760   0.74920
C          C       0.25340   0.51240   0.25080
C          C       0.24660   0.48760   0.75080
C          C       0.25340   0.98760   0.75080
C          C       0.24660   0.01240   0.25080
C          C       0.74660   0.48760   0.74920
C          C       0.75340   0.51240   0.24920
H          H       0.69720   0.03480   0.27440
H          H       0.80280   0.96520   0.77440
H          H       0.30280   0.53480   0.22560
H          H       0.19720   0.46520   0.72560
H          H       0.30280   0.96520   0.72560
H          H       0.19720   0.03480   0.22560
H          H       0.69720   0.46520   0.77440
H          H       0.80280   0.53480   0.27440
C          C       0.10340   0.27220   0.44020
C          C       0.39660   0.72780   0.94020
C          C       0.89660   0.77220   0.05980
C          C       0.60340   0.22780   0.55980
C          C       0.89660   0.72780   0.55980
C          C       0.60340   0.27220   0.05980
C          C       0.10340   0.22780   0.94020
C          C       0.39660   0.77220   0.44020
H          H       0.02610   0.27440   0.41640
H          H       0.47390   0.72560   0.91640
H          H       0.97390   0.77440   0.08360
H          H       0.52610   0.22560   0.58360
H          H       0.97390   0.72560   0.58360
H          H       0.52610   0.27440   0.08360
H          H       0.02610   0.22560   0.91640
H          H       0.47390   0.77440   0.41640
N          N       0.87850   0.99490   0.25720
N          N       0.62150   0.00510   0.75720
N          N       0.12150   0.49490   0.24280
N          N       0.37850   0.50510   0.74280
N          N       0.12150   0.00510   0.74280
N          N       0.37850   0.99490   0.24280
N          N       0.87850   0.50510   0.75720
N          N       0.62150   0.49490   0.25720
C          C       0.90810   0.96600   0.21160
C          C       0.59190   0.03400   0.71160
C          C       0.09190   0.46600   0.28840
C          C       0.40810   0.53400   0.78840
C          C       0.09190   0.03400   0.78840
C          C       0.40810   0.96600   0.28840
C          C       0.90810   0.53400   0.71160
C          C       0.59190   0.46600   0.21160
H          H       0.99390   0.94830   0.20440
H          H       0.50610   0.05170   0.70440
H          H       0.00610   0.44830   0.29560
H          H       0.49390   0.55170   0.79560
H          H       0.00610   0.05170   0.79560
H          H       0.49390   0.94830   0.29560
H          H       0.99390   0.55170   0.70440
H          H       0.50610   0.44830   0.20440
C          C       0.24160   0.24630   0.50330
C          C       0.25840   0.75370   0.00330
C          C       0.75840   0.74630   0.99670
C          C       0.74160   0.25370   0.49670
C          C       0.75840   0.75370   0.49670
C          C       0.74160   0.24630   0.99670
C          C       0.24160   0.25370   0.00330
C          C       0.25840   0.74630   0.50330
H          H       0.28150   0.22620   0.53290
H          H       0.21850   0.77380   0.03290
H          H       0.71850   0.72620   0.96710
H          H       0.78150   0.27380   0.46710
H          H       0.71850   0.77380   0.46710
H          H       0.78150   0.22620   0.96710
H          H       0.28150   0.27380   0.03290
H          H       0.21850   0.72620   0.53290
N          N       0.19410   0.99450   0.29820
N          N       0.30590   0.00550   0.79820
N          N       0.80590   0.49450   0.20180
N          N       0.69410   0.50550   0.70180
N          N       0.80590   0.00550   0.70180
N          N       0.69410   0.99450   0.20180
N          N       0.19410   0.50550   0.79820
N          N       0.30590   0.49450   0.29820
C          C       0.79840   0.96590   0.17790
C          C       0.70160   0.03410   0.67790
C          C       0.20160   0.46590   0.32210
C          C       0.29840   0.53410   0.82210
C          C       0.20160   0.03410   0.82210
C          C       0.29840   0.96590   0.32210
C          C       0.79840   0.53410   0.67790
C          C       0.70160   0.46590   0.17790
H          H       0.79460   0.94860   0.14300
H          H       0.70540   0.05140   0.64300
H          H       0.20540   0.44860   0.35700
H          H       0.29460   0.55140   0.85700
H          H       0.20540   0.05140   0.85700
H          H       0.29460   0.94860   0.35700
H          H       0.79460   0.55140   0.64300
H          H       0.70540   0.44860   0.14300
C          C       0.99220   0.08180   0.58180
C          C       0.50780   0.91820   0.08180
C          C       0.00780   0.58180   0.91820
C          C       0.49220   0.41820   0.41820
C          C       0.00780   0.91820   0.41820
C          C       0.49220   0.08180   0.91820
C          C       0.99220   0.41820   0.08180
C          C       0.50780   0.58180   0.58180
H          H       0.92610   0.06110   0.56160
H          H       0.57390   0.93890   0.06160
H          H       0.07390   0.56110   0.93840
H          H       0.42610   0.43890   0.43840
H          H       0.07390   0.93890   0.43840
H          H       0.42610   0.06110   0.93840
H          H       0.92610   0.43890   0.06160
H          H       0.57390   0.56110   0.56160
C          C       0.71530   0.19430   0.56180
C          C       0.78470   0.80570   0.06180
C          C       0.28470   0.69430   0.93820
C          C       0.21530   0.30570   0.43820
C          C       0.28470   0.80570   0.43820
C          C       0.21530   0.19430   0.93820
C          C       0.71530   0.30570   0.06180
C          C       0.78470   0.69430   0.56180
H          H       0.73000   0.16480   0.58680
H          H       0.77000   0.83520   0.08680
H          H       0.27000   0.66480   0.91320
H          H       0.23000   0.33520   0.41320
H          H       0.27000   0.83520   0.41320
H          H       0.23000   0.16480   0.91320
H          H       0.73000   0.33520   0.08680
H          H       0.77000   0.66480   0.58680
N          N       0.95000   0.13130   0.43360
N          N       0.55000   0.86870   0.93360
N          N       0.05000   0.63130   0.06640
N          N       0.45000   0.36870   0.56640
N          N       0.05000   0.86870   0.56640
N          N       0.45000   0.13130   0.06640
N          N       0.95000   0.36870   0.93360
N          N       0.55000   0.63130   0.43360
C          C       0.89740   0.15480   0.38730
C          C       0.60260   0.84520   0.88730
C          C       0.10260   0.65480   0.11270
C          C       0.39740   0.34520   0.61270
C          C       0.10260   0.84520   0.61270
C          C       0.39740   0.15480   0.11270
C          C       0.89740   0.34520   0.88730
C          C       0.60260   0.65480   0.38730
H          H       0.86390   0.19170   0.38440
H          H       0.63610   0.80830   0.88440
H          H       0.13610   0.69170   0.11560
H          H       0.36390   0.30830   0.61560
H          H       0.13610   0.80830   0.61560
H          H       0.36390   0.19170   0.11560
H          H       0.86390   0.30830   0.88440
H          H       0.63610   0.69170   0.38440
C          C       0.13580   0.10580   0.64450
C          C       0.36420   0.89420   0.14450
C          C       0.86420   0.60580   0.85550
C          C       0.63580   0.39420   0.35550
C          C       0.86420   0.89420   0.35550
C          C       0.63580   0.10580   0.85550
C          C       0.13580   0.39420   0.14450
C          C       0.36420   0.60580   0.64450
H          H       0.19180   0.10590   0.67650
H          H       0.30820   0.89410   0.17650
H          H       0.80820   0.60590   0.82350
H          H       0.69180   0.39410   0.32350
H          H       0.80820   0.89410   0.32350
H          H       0.69180   0.10590   0.82350
H          H       0.19180   0.39410   0.17650
H          H       0.30820   0.60590   0.67650
N          N       0.95670   0.07020   0.36540
N          N       0.54330   0.92980   0.86540
N          N       0.04330   0.57020   0.13460
N          N       0.45670   0.42980   0.63460
N          N       0.04330   0.92980   0.63460
N          N       0.45670   0.07020   0.13460
N          N       0.95670   0.42980   0.86540
N          N       0.54330   0.57020   0.36540
C          C       0.90050   0.11720   0.34570
C          C       0.59950   0.88280   0.84570
C          C       0.09950   0.61720   0.15430
C          C       0.40050   0.38280   0.65430
C          C       0.09950   0.88280   0.65430
C          C       0.40050   0.11720   0.15430
C          C       0.90050   0.38280   0.84570
C          C       0.59950   0.61720   0.34570
H          H       0.86870   0.12310   0.30940
H          H       0.63130   0.87690   0.80940
H          H       0.13130   0.62310   0.19060
H          H       0.36870   0.37690   0.69060
H          H       0.13130   0.87690   0.69060
H          H       0.36870   0.12310   0.19060
H          H       0.86870   0.37690   0.80940
H          H       0.63130   0.62310   0.30940
C          C       0.13510   0.14570   0.60550
C          C       0.36490   0.85430   0.10550
C          C       0.86490   0.64570   0.89450
C          C       0.63510   0.35430   0.39450
C          C       0.86490   0.85430   0.39450
C          C       0.63510   0.14570   0.89450
C          C       0.13510   0.35430   0.10550
C          C       0.36490   0.64570   0.60550
H          H       0.18850   0.17880   0.60630
H          H       0.31150   0.82120   0.10630
H          H       0.81150   0.67880   0.89370
H          H       0.68850   0.32120   0.39370
H          H       0.81150   0.82120   0.39370
H          H       0.68850   0.17880   0.89370
H          H       0.18850   0.32120   0.10630
H          H       0.31150   0.67880   0.60630
N          N       0.04510   0.13090   0.56460
N          N       0.45490   0.86910   0.06460
N          N       0.95490   0.63090   0.93540
N          N       0.54510   0.36910   0.43540
N          N       0.95490   0.86910   0.43540
N          N       0.54510   0.13090   0.93540
N          N       0.04510   0.36910   0.06460
N          N       0.45490   0.63090   0.56460
N          N       0.04320   0.06510   0.63070
N          N       0.45680   0.93490   0.13070
N          N       0.95680   0.56510   0.86930
N          N       0.54320   0.43490   0.36930
N          N       0.95680   0.93490   0.36930
N          N       0.54320   0.06510   0.86930
N          N       0.04320   0.43490   0.13070
N          N       0.45680   0.56510   0.63070
