data_crystal

_cell_length_a    9.74050
_cell_length_b    15.26600
_cell_length_c    14.93600
_cell_angle_alpha 90.00000
_cell_angle_beta  98.62000
_cell_angle_gamma 90.00000

_space_group_name_Hall 'P 1'
_space_group_name_H-M_alt 'P 1'

loop_
_symmetry_equiv_pos_as_xyz
 'x,y,z'

loop_
_atom_site_label
_atom_site_type_symbol
_atom_site_fract_x
_atom_site_fract_y
_atom_site_fract_z
C          C       0.53008   0.90801   0.84328
C          C       0.96992   0.40801   0.65672
C          C       0.46992   0.09199   0.15672
C          C       0.03008   0.59199   0.34328
H          H       0.51660   0.93180   0.89940
H          H       0.98340   0.43180   0.60060
H          H       0.48340   0.06820   0.10060
H          H       0.01660   0.56820   0.39940
C          C       0.54922   0.89866   0.70551
C          C       0.95078   0.39866   0.79449
C          C       0.45078   0.10134   0.29449
C          C       0.04922   0.60134   0.20551
H          H       0.55240   0.91190   0.64440
H          H       0.94760   0.41190   0.85560
H          H       0.44760   0.08810   0.35560
H          H       0.05240   0.58810   0.14440
C          C       0.57370   0.81934   0.74432
C          C       0.92630   0.31934   0.75568
C          C       0.42630   0.18066   0.25568
C          C       0.07370   0.68066   0.24432
H          H       0.59620   0.76830   0.71450
H          H       0.90380   0.26830   0.78550
H          H       0.40380   0.23170   0.28550
H          H       0.09620   0.73170   0.21450
C          C       0.88930   0.68162   0.98180
C          C       0.61070   0.18162   0.51820
C          C       0.11070   0.31838   0.01820
C          C       0.38930   0.81838   0.48180
H          H       0.89640   0.70540   0.04040
H          H       0.60360   0.20540   0.45960
H          H       0.10360   0.29460   0.95960
H          H       0.39640   0.79460   0.54040
C          C       0.81368   0.63613   0.85207
C          C       0.68632   0.13613   0.64793
C          C       0.18632   0.36387   0.14793
C          C       0.31368   0.86387   0.35207
H          H       0.75170   0.62230   0.79950
H          H       0.74830   0.12230   0.70050
H          H       0.24830   0.37770   0.20050
H          H       0.25170   0.87770   0.29950
C          C       0.45646   0.54530   0.88375
C          C       0.04354   0.04530   0.61625
C          C       0.54354   0.45470   0.11625
C          C       0.95646   0.95470   0.38375
H          H       0.53330   0.51420   0.91350
H          H       0.96670   0.01420   0.58650
H          H       0.46670   0.48580   0.08650
H          H       0.03330   0.98580   0.41350
C          C       0.44410   0.71842   0.08382
C          C       0.05590   0.21842   0.41618
C          C       0.55590   0.28158   0.91618
C          C       0.94410   0.78158   0.58382
H          H       0.39740   0.66610   0.06540
H          H       0.10260   0.16610   0.43460
H          H       0.60260   0.33390   0.93460
H          H       0.89740   0.83390   0.56540
C          C       0.16800   0.01015   0.65047
C          C       0.33200   0.51015   0.84953
C          C       0.83200   0.98985   0.34953
C          C       0.66800   0.48985   0.15047
H          H       0.19290   0.95090   0.64730
H          H       0.30710   0.45090   0.85270
H          H       0.80710   0.04910   0.35270
H          H       0.69290   0.54910   0.14730
C          C       0.17558   0.14622   0.67618
C          C       0.32442   0.64622   0.82382
C          C       0.82442   0.85378   0.32382
C          C       0.67558   0.35378   0.17618
H          H       0.20850   0.20200   0.69560
H          H       0.29150   0.70200   0.80440
H          H       0.79150   0.79800   0.30440
H          H       0.70850   0.29800   0.19560
C          C       0.50403   0.14793   0.55661
C          C       0.99597   0.64793   0.94339
C          C       0.49597   0.85207   0.44339
C          C       0.00403   0.35207   0.05661
H          H       0.41060   0.14610   0.52930
H          H       0.08940   0.64610   0.97070
H          H       0.58940   0.85390   0.47070
H          H       0.91060   0.35390   0.02930
C          C       0.42709   0.17049   0.91013
C          C       0.07291   0.67049   0.58987
C          C       0.57291   0.82951   0.08987
C          C       0.92709   0.32951   0.41013
H          H       0.36260   0.12910   0.92490
H          H       0.13740   0.62910   0.57510
H          H       0.63740   0.87090   0.07510
H          H       0.86260   0.37090   0.42490
C          C       0.56909   0.23624   0.84016
C          C       0.93091   0.73624   0.65984
C          C       0.43091   0.76376   0.15984
C          C       0.06909   0.26376   0.34016
H          H       0.62560   0.25200   0.79700
H          H       0.87440   0.75200   0.70300
H          H       0.37440   0.74800   0.20300
H          H       0.12560   0.24800   0.29700
N          N       0.56081   0.82495   0.83356
N          N       0.93919   0.32495   0.66644
N          N       0.43919   0.17505   0.16644
N          N       0.06081   0.67505   0.33356
N          N       0.51939   0.95578   0.76862
N          N       0.98061   0.45578   0.73138
N          N       0.48061   0.04422   0.23138
N          N       0.01939   0.54422   0.26862
N          N       0.77228   0.67526   0.92215
N          N       0.72772   0.17526   0.57785
N          N       0.22772   0.32474   0.07785
N          N       0.27228   0.82474   0.42215
N          N       0.45216   0.63279   0.86801
N          N       0.04784   0.13279   0.63199
N          N       0.54784   0.36721   0.13199
N          N       0.95216   0.86721   0.36801
N          N       0.53449   0.75994   0.03867
N          N       0.96551   0.25994   0.46133
N          N       0.46551   0.24006   0.96133
N          N       0.03449   0.74006   0.53867
N          N       0.25111   0.07550   0.69024
N          N       0.24889   0.57550   0.80976
N          N       0.74889   0.92450   0.30976
N          N       0.75111   0.42450   0.19024
N          N       0.48714   0.16439   0.83677
N          N       0.01286   0.66439   0.66323
N          N       0.51286   0.83561   0.16323
N          N       0.98714   0.33561   0.33677
N          N       0.55330   0.11771   0.63990
N          N       0.94670   0.61771   0.86010
N          N       0.44670   0.88229   0.36010
N          N       0.05330   0.38229   0.13990
Zn         Zn      0.45317   0.07607   0.73898
Zn         Zn      0.04683   0.57607   0.76102
Zn         Zn      0.54683   0.92393   0.26102
Zn         Zn      0.95317   0.42393   0.23898
Zn         Zn      0.58453   0.72605   0.92052
Zn         Zn      0.91547   0.22605   0.57948
Zn         Zn      0.41547   0.27395   0.07948
Zn         Zn      0.08453   0.77395   0.42052
