data_crystal

_cell_length_a    15.39500
_cell_length_b    15.30730
_cell_length_c    18.42600
_cell_angle_alpha 90.00000
_cell_angle_beta  90.00000
_cell_angle_gamma 90.00000

_space_group_name_Hall 'P 1'
_space_group_name_H-M_alt 'P 1'

loop_
_symmetry_equiv_pos_as_xyz
 'x,y,z'

loop_
_atom_site_label
_atom_site_type_symbol
_atom_site_fract_x
_atom_site_fract_y
_atom_site_fract_z
C          C       0.85769   0.73390   0.86019
H          H       0.82190   0.78010   0.84480
C          C       0.89910   0.61320   0.90571
H          H       0.89930   0.55800   0.92800
C          C       0.97080   0.65820   0.88370
H          H       0.02870   0.63950   0.88810
C          C       0.69110   0.51370   0.78300
H          H       0.73910   0.53740   0.75830
C          C       0.61980   0.82240   0.89068
H          H       0.63720   0.84540   0.93570
C          C       0.59815   0.73721   0.80184
H          H       0.59770   0.68700   0.77240
C          C       0.10590   0.84601   0.95360
H          H       0.06400   0.81080   0.97640
C          C       0.07600   0.86590   0.66094
H          H       0.05780   0.92450   0.65790
C          C       0.90531   0.98711   0.86161
H          H       0.93810   0.99000   0.90460
C          C       0.86280   0.94990   0.75710
H          H       0.85790   0.92230   0.71170
C          C       0.72750   0.59510   0.07030
H          H       0.78500   0.57500   0.06610
C          C       0.18300   0.89760   0.86750
H          H       0.20380   0.91060   0.82080
N          N       0.82702   0.66148   0.89010
N          N       0.94376   0.73514   0.85396
N          N       0.67417   0.62256   0.01153
N          N       0.66370   0.53685   0.85008
N          N       0.63490   0.73928   0.86682
N          N       0.10088   0.86758   0.88468
N          N       0.06206   0.81197   0.71808
N          N       0.92445   0.93287   0.80772
Zn         Zn      0.70215   0.63949   0.90830
Zn         Zn      0.00963   0.83602   0.81374
C          C       0.64231   0.26610   0.36019
H          H       0.67810   0.21990   0.34480
C          C       0.60090   0.38680   0.40571
H          H       0.60070   0.44200   0.42800
C          C       0.52920   0.34180   0.38370
H          H       0.47130   0.36050   0.38810
C          C       0.80890   0.48630   0.28300
H          H       0.76090   0.46260   0.25830
C          C       0.88020   0.17760   0.39068
H          H       0.86280   0.15460   0.43570
C          C       0.90185   0.26279   0.30184
H          H       0.90230   0.31300   0.27240
C          C       0.39410   0.15399   0.45360
H          H       0.43600   0.18920   0.47640
C          C       0.42400   0.13410   0.16094
H          H       0.44220   0.07550   0.15790
C          C       0.59469   0.01289   0.36161
H          H       0.56190   0.01000   0.40460
C          C       0.63720   0.05010   0.25710
H          H       0.64210   0.07770   0.21170
C          C       0.33490   0.06770   0.37880
H          H       0.32360   0.03380   0.33730
C          C       0.79200   0.43810   0.55700
H          H       0.74680   0.47720   0.54600
N          N       0.67298   0.33852   0.39010
N          N       0.55624   0.26486   0.35396
N          N       0.82583   0.37744   0.51153
N          N       0.83630   0.46315   0.35008
N          N       0.86510   0.26072   0.36682
N          N       0.39912   0.13242   0.38468
N          N       0.43794   0.18803   0.21808
N          N       0.57555   0.06713   0.30772
Zn         Zn      0.79785   0.36051   0.40830
Zn         Zn      0.49036   0.16398   0.31374
C          C       0.35769   0.76610   0.13981
H          H       0.32190   0.71990   0.15520
C          C       0.39910   0.88680   0.09429
H          H       0.39930   0.94200   0.07200
C          C       0.47080   0.84180   0.11630
H          H       0.52870   0.86050   0.11190
C          C       0.19110   0.98630   0.21700
H          H       0.23910   0.96260   0.24170
C          C       0.11980   0.67760   0.10932
H          H       0.13720   0.65460   0.06430
C          C       0.09815   0.76279   0.19816
H          H       0.09770   0.81300   0.22760
C          C       0.60590   0.65399   0.04640
H          H       0.56400   0.68920   0.02360
C          C       0.57600   0.63410   0.33906
H          H       0.55780   0.57550   0.34210
C          C       0.40531   0.51289   0.13839
H          H       0.43810   0.51000   0.09540
C          C       0.36280   0.55010   0.24290
H          H       0.35790   0.57770   0.28830
C          C       0.22750   0.90490   0.92970
H          H       0.28500   0.92500   0.93390
C          C       0.68300   0.60240   0.13250
H          H       0.70380   0.58940   0.17920
N          N       0.32702   0.83852   0.10990
N          N       0.44376   0.76486   0.14604
N          N       0.17417   0.87744   0.98847
N          N       0.16370   0.96315   0.14992
N          N       0.13490   0.76072   0.13318
N          N       0.60088   0.63242   0.11532
N          N       0.56206   0.68803   0.28192
N          N       0.42445   0.56713   0.19228
Zn         Zn      0.20215   0.86051   0.09170
Zn         Zn      0.50963   0.66398   0.18626
C          C       0.14231   0.23390   0.63981
H          H       0.17810   0.28010   0.65520
C          C       0.10090   0.11320   0.59429
H          H       0.10070   0.05800   0.57200
C          C       0.02920   0.15820   0.61630
H          H       0.97130   0.13950   0.61190
C          C       0.30890   0.01370   0.71700
H          H       0.26090   0.03740   0.74170
C          C       0.38020   0.32240   0.60932
H          H       0.36280   0.34540   0.56430
C          C       0.40185   0.23721   0.69816
H          H       0.40230   0.18700   0.72760
C          C       0.89410   0.34601   0.54640
H          H       0.93600   0.31080   0.52360
C          C       0.92400   0.36590   0.83906
H          H       0.94220   0.42450   0.84210
C          C       0.09469   0.48711   0.63839
H          H       0.06190   0.49000   0.59540
C          C       0.13720   0.44990   0.74290
H          H       0.14210   0.42230   0.78830
C          C       0.83490   0.43230   0.62120
H          H       0.82360   0.46620   0.66270
C          C       0.29200   0.06190   0.44300
H          H       0.24680   0.02280   0.45400
N          N       0.17298   0.16148   0.60990
N          N       0.05624   0.23514   0.64604
N          N       0.32583   0.12256   0.48847
N          N       0.33630   0.03685   0.64992
N          N       0.36510   0.23928   0.63318
N          N       0.89912   0.36758   0.61532
N          N       0.93794   0.31197   0.78192
N          N       0.07555   0.43287   0.69228
Zn         Zn      0.29785   0.13949   0.59170
Zn         Zn      0.99037   0.33602   0.68626
C          C       0.14231   0.26610   0.13981
H          H       0.17810   0.21990   0.15520
C          C       0.10090   0.38680   0.09429
H          H       0.10070   0.44200   0.07200
C          C       0.02920   0.34180   0.11630
H          H       0.97130   0.36050   0.11190
C          C       0.30890   0.48630   0.21700
H          H       0.26090   0.46260   0.24170
C          C       0.38020   0.17760   0.10932
H          H       0.36280   0.15460   0.06430
C          C       0.40185   0.26279   0.19816
H          H       0.40230   0.31300   0.22760
C          C       0.89410   0.15399   0.04640
H          H       0.93600   0.18920   0.02360
C          C       0.92400   0.13410   0.33906
H          H       0.94220   0.07550   0.34210
C          C       0.09469   0.01289   0.13839
H          H       0.06190   0.01000   0.09540
C          C       0.13720   0.05010   0.24290
H          H       0.14210   0.07770   0.28830
C          C       0.27250   0.40490   0.92970
H          H       0.21500   0.42500   0.93390
C          C       0.81700   0.10240   0.13250
H          H       0.79620   0.08940   0.17920
N          N       0.17298   0.33852   0.10990
N          N       0.05624   0.26486   0.14604
N          N       0.32583   0.37744   0.98847
N          N       0.33630   0.46315   0.14992
N          N       0.36510   0.26072   0.13318
N          N       0.89912   0.13242   0.11532
N          N       0.93794   0.18803   0.28192
N          N       0.07555   0.06713   0.19228
Zn         Zn      0.29785   0.36051   0.09170
Zn         Zn      0.99037   0.16398   0.18626
C          C       0.35769   0.73390   0.63981
H          H       0.32190   0.78010   0.65520
C          C       0.39910   0.61320   0.59429
H          H       0.39930   0.55800   0.57200
C          C       0.47080   0.65820   0.61630
H          H       0.52870   0.63950   0.61190
C          C       0.19110   0.51370   0.71700
H          H       0.23910   0.53740   0.74170
C          C       0.11980   0.82240   0.60932
H          H       0.13720   0.84540   0.56430
C          C       0.09815   0.73721   0.69816
H          H       0.09770   0.68700   0.72760
C          C       0.60590   0.84601   0.54640
H          H       0.56400   0.81080   0.52360
C          C       0.57600   0.86590   0.83906
H          H       0.55780   0.92450   0.84210
C          C       0.40531   0.98711   0.63839
H          H       0.43810   0.99000   0.59540
C          C       0.36280   0.94990   0.74290
H          H       0.35790   0.92230   0.78830
C          C       0.66510   0.93230   0.62120
H          H       0.67640   0.96620   0.66270
C          C       0.20800   0.56190   0.44300
H          H       0.25320   0.52280   0.45400
N          N       0.32702   0.66148   0.60990
N          N       0.44376   0.73514   0.64604
N          N       0.17417   0.62256   0.48847
N          N       0.16370   0.53685   0.64992
N          N       0.13490   0.73928   0.63318
N          N       0.60088   0.86758   0.61532
N          N       0.56206   0.81197   0.78192
N          N       0.42445   0.93287   0.69228
Zn         Zn      0.20215   0.63949   0.59170
Zn         Zn      0.50963   0.83602   0.68626
C          C       0.64231   0.23390   0.86019
H          H       0.67810   0.28010   0.84480
C          C       0.60090   0.11320   0.90571
H          H       0.60070   0.05800   0.92800
C          C       0.52920   0.15820   0.88370
H          H       0.47130   0.13950   0.88810
C          C       0.80890   0.01370   0.78300
H          H       0.76090   0.03740   0.75830
C          C       0.88020   0.32240   0.89068
H          H       0.86280   0.34540   0.93570
C          C       0.90185   0.23721   0.80184
H          H       0.90230   0.18700   0.77240
C          C       0.39410   0.34601   0.95360
H          H       0.43600   0.31080   0.97640
C          C       0.42400   0.36590   0.66094
H          H       0.44220   0.42450   0.65790
C          C       0.59469   0.48711   0.86161
H          H       0.56190   0.49000   0.90460
C          C       0.63720   0.44990   0.75710
H          H       0.64210   0.42230   0.71170
C          C       0.77250   0.09510   0.07030
H          H       0.71500   0.07500   0.06610
C          C       0.31700   0.39760   0.86750
H          H       0.29620   0.41060   0.82080
N          N       0.67298   0.16148   0.89010
N          N       0.55624   0.23514   0.85396
N          N       0.82583   0.12256   0.01153
N          N       0.83630   0.03685   0.85008
N          N       0.86510   0.23928   0.86682
N          N       0.39912   0.36758   0.88468
N          N       0.43794   0.31197   0.71808
N          N       0.57555   0.43287   0.80772
Zn         Zn      0.79785   0.13949   0.90830
Zn         Zn      0.49036   0.33602   0.81374
C          C       0.85769   0.76610   0.36019
H          H       0.82190   0.71990   0.34480
C          C       0.89910   0.88680   0.40571
H          H       0.89930   0.94200   0.42800
C          C       0.97080   0.84180   0.38370
H          H       0.02870   0.86050   0.38810
C          C       0.69110   0.98630   0.28300
H          H       0.73910   0.96260   0.25830
C          C       0.61980   0.67760   0.39068
H          H       0.63720   0.65460   0.43570
C          C       0.59815   0.76279   0.30184
H          H       0.59770   0.81300   0.27240
C          C       0.10590   0.65399   0.45360
H          H       0.06400   0.68920   0.47640
C          C       0.07600   0.63410   0.16094
H          H       0.05780   0.57550   0.15790
C          C       0.90531   0.51289   0.36161
H          H       0.93810   0.51000   0.40460
C          C       0.86280   0.55010   0.25710
H          H       0.85790   0.57770   0.21170
C          C       0.16510   0.56770   0.37880
H          H       0.17640   0.53380   0.33730
C          C       0.70800   0.93810   0.55700
H          H       0.75320   0.97720   0.54600
N          N       0.82702   0.83852   0.39010
N          N       0.94376   0.76486   0.35396
N          N       0.67417   0.87744   0.51153
N          N       0.66370   0.96315   0.35008
N          N       0.63490   0.76072   0.36682
N          N       0.10088   0.63242   0.38468
N          N       0.06206   0.68803   0.21808
N          N       0.92445   0.56713   0.30772
Zn         Zn      0.70215   0.86051   0.40830
Zn         Zn      0.00963   0.66398   0.31374
