data_crystal

_cell_length_a    22.94370
_cell_length_b    22.94370
_cell_length_c    15.74700
_cell_angle_alpha 90.00000
_cell_angle_beta  90.00000
_cell_angle_gamma 120.00000

_space_group_name_Hall 'P 1'
_space_group_name_H-M_alt 'P 1'

loop_
_symmetry_equiv_pos_as_xyz
 'x,y,z'

loop_
_atom_site_label
_atom_site_type_symbol
_atom_site_fract_x
_atom_site_fract_y
_atom_site_fract_z
C          C       0.32940   0.02880   0.17560
C          C       0.97120   0.30060   0.17560
C          C       0.69940   0.67060   0.17560
C          C       0.67060   0.97120   0.82440
C          C       0.02880   0.69940   0.82440
C          C       0.30060   0.32940   0.82440
C          C       0.99607   0.36213   0.50893
C          C       0.63787   0.63393   0.50893
C          C       0.36607   0.00393   0.50893
C          C       0.33727   0.30453   0.15773
C          C       0.69547   0.03273   0.15773
C          C       0.96727   0.66273   0.15773
C          C       0.66273   0.69547   0.84227
C          C       0.30453   0.96727   0.84227
C          C       0.03273   0.33727   0.84227
C          C       0.00393   0.63787   0.49107
C          C       0.36213   0.36607   0.49107
C          C       0.63393   0.99607   0.49107
H          H       0.33330   0.07100   0.17140
H          H       0.92900   0.26230   0.17140
H          H       0.73770   0.66670   0.17140
H          H       0.66670   0.92900   0.82860
H          H       0.07100   0.73770   0.82860
H          H       0.26230   0.33330   0.82860
H          H       0.99997   0.40433   0.50473
H          H       0.59567   0.59563   0.50473
H          H       0.40437   0.00003   0.50473
H          H       0.33337   0.26233   0.16193
H          H       0.73767   0.07103   0.16193
H          H       0.92897   0.66663   0.16193
H          H       0.66663   0.73767   0.83807
H          H       0.26233   0.92897   0.83807
H          H       0.07103   0.33337   0.83807
H          H       0.00003   0.59567   0.49527
H          H       0.40433   0.40437   0.49527
H          H       0.59563   0.99997   0.49527
C          C       0.33670   0.94560   0.22340
C          C       0.05440   0.39110   0.22340
C          C       0.60890   0.66330   0.22340
C          C       0.66330   0.05440   0.77660
C          C       0.94560   0.60890   0.77660
C          C       0.39110   0.33670   0.77660
C          C       0.00337   0.27893   0.55673
C          C       0.72107   0.72443   0.55673
C          C       0.27557   0.99663   0.55673
C          C       0.32997   0.38773   0.10993
C          C       0.61227   0.94223   0.10993
C          C       0.05777   0.67003   0.10993
C          C       0.67003   0.61227   0.89007
C          C       0.38773   0.05777   0.89007
C          C       0.94223   0.32997   0.89007
C          C       0.99663   0.72107   0.44327
C          C       0.27893   0.27557   0.44327
C          C       0.72443   0.00337   0.44327
C          C       0.34760   0.90060   0.27140
C          C       0.09940   0.44700   0.27140
C          C       0.55300   0.65240   0.27140
C          C       0.65240   0.09940   0.72860
C          C       0.90060   0.55300   0.72860
C          C       0.44700   0.34760   0.72860
C          C       0.01427   0.23393   0.60473
C          C       0.76607   0.78033   0.60473
C          C       0.21967   0.98573   0.60473
C          C       0.31907   0.43273   0.06193
C          C       0.56727   0.88633   0.06193
C          C       0.11367   0.68093   0.06193
C          C       0.68093   0.56727   0.93807
C          C       0.43273   0.11367   0.93807
C          C       0.88633   0.31907   0.93807
C          C       0.98573   0.76607   0.39527
C          C       0.23393   0.21967   0.39527
C          C       0.78033   0.01427   0.39527
H          H       0.36750   0.91170   0.32490
H          H       0.08830   0.45580   0.32490
H          H       0.54420   0.63250   0.32490
H          H       0.63250   0.08830   0.67510
H          H       0.91170   0.54420   0.67510
H          H       0.45580   0.36750   0.67510
H          H       0.03417   0.24503   0.65823
H          H       0.75497   0.78913   0.65823
H          H       0.21087   0.96583   0.65823
H          H       0.29917   0.42163   0.00843
H          H       0.57837   0.87753   0.00843
H          H       0.12247   0.70083   0.00843
H          H       0.70083   0.57837   0.99157
H          H       0.42163   0.12247   0.99157
H          H       0.87753   0.29917   0.99157
H          H       0.96583   0.75497   0.34177
H          H       0.24503   0.21087   0.34177
H          H       0.78913   0.03417   0.34177
C          C       0.32700   0.83940   0.23450
C          C       0.16060   0.48760   0.23450
C          C       0.51240   0.67300   0.23450
C          C       0.67300   0.16060   0.76550
C          C       0.83940   0.51240   0.76550
C          C       0.48760   0.32700   0.76550
C          C       0.99367   0.17273   0.56783
C          C       0.82727   0.82093   0.56783
C          C       0.17907   0.00633   0.56783
C          C       0.33967   0.49393   0.09883
C          C       0.50607   0.84573   0.09883
C          C       0.15427   0.66033   0.09883
C          C       0.66033   0.50607   0.90117
C          C       0.49393   0.15427   0.90117
C          C       0.84573   0.33967   0.90117
C          C       0.00633   0.82727   0.43217
C          C       0.17273   0.17907   0.43217
C          C       0.82093   0.99367   0.43217
H          H       0.33460   0.80850   0.26350
H          H       0.19150   0.52610   0.26350
H          H       0.47390   0.66540   0.26350
H          H       0.66540   0.19150   0.73650
H          H       0.80850   0.47390   0.73650
H          H       0.52610   0.33460   0.73650
H          H       0.00127   0.14183   0.59683
H          H       0.85817   0.85943   0.59683
H          H       0.14057   0.99873   0.59683
H          H       0.33207   0.52483   0.06983
H          H       0.47517   0.80723   0.06983
H          H       0.19277   0.66793   0.06983
H          H       0.66793   0.47517   0.93017
H          H       0.52483   0.19277   0.93017
H          H       0.80723   0.33207   0.93017
H          H       0.99873   0.85817   0.40317
H          H       0.14183   0.14057   0.40317
H          H       0.85943   0.00127   0.40317
C          C       0.39260   0.20060   0.33940
C          C       0.79940   0.19200   0.33940
C          C       0.80800   0.60740   0.33940
C          C       0.60740   0.79940   0.66060
C          C       0.20060   0.80800   0.66060
C          C       0.19200   0.39260   0.66060
C          C       0.05927   0.53393   0.67273
C          C       0.46607   0.52533   0.67273
C          C       0.47467   0.94073   0.67273
C          C       0.27407   0.13273   0.99393
C          C       0.86727   0.14133   0.99393
C          C       0.85867   0.72593   0.99393
C          C       0.72593   0.86727   0.00607
C          C       0.13273   0.85867   0.00607
C          C       0.14133   0.27407   0.00607
C          C       0.94073   0.46607   0.32727
C          C       0.53393   0.47467   0.32727
C          C       0.52533   0.05927   0.32727
H          H       0.36590   0.18910   0.38780
H          H       0.81090   0.17680   0.38780
H          H       0.82320   0.63410   0.38780
H          H       0.63410   0.81090   0.61220
H          H       0.18910   0.82320   0.61220
H          H       0.17680   0.36590   0.61220
H          H       0.03257   0.52243   0.72113
H          H       0.47757   0.51013   0.72113
H          H       0.48987   0.96743   0.72113
H          H       0.30077   0.14423   0.94553
H          H       0.85577   0.15653   0.94553
H          H       0.84347   0.69923   0.94553
H          H       0.69923   0.85577   0.05447
H          H       0.14423   0.84347   0.05447
H          H       0.15653   0.30077   0.05447
H          H       0.96743   0.47757   0.27887
H          H       0.52243   0.48987   0.27887
H          H       0.51013   0.03257   0.27887
C          C       0.45220   0.19570   0.23770
C          C       0.80430   0.25650   0.23770
C          C       0.74350   0.54780   0.23770
C          C       0.54780   0.80430   0.76230
C          C       0.19570   0.74350   0.76230
C          C       0.25650   0.45220   0.76230
C          C       0.11887   0.52903   0.57103
C          C       0.47097   0.58983   0.57103
C          C       0.41017   0.88113   0.57103
C          C       0.21447   0.13763   0.09563
C          C       0.86237   0.07683   0.09563
C          C       0.92317   0.78553   0.09563
C          C       0.78553   0.86237   0.90437
C          C       0.13763   0.92317   0.90437
C          C       0.07683   0.21447   0.90437
C          C       0.88113   0.47097   0.42897
C          C       0.52903   0.41017   0.42897
C          C       0.58983   0.11887   0.42897
C          C       0.48700   0.17940   0.18000
C          C       0.82060   0.30760   0.18000
C          C       0.69240   0.51300   0.18000
C          C       0.51300   0.82060   0.82000
C          C       0.17940   0.69240   0.82000
C          C       0.30760   0.48700   0.82000
C          C       0.15367   0.51273   0.51333
C          C       0.48727   0.64093   0.51333
C          C       0.35907   0.84633   0.51333
C          C       0.17967   0.15393   0.15333
C          C       0.84607   0.02573   0.15333
C          C       0.97427   0.82033   0.15333
C          C       0.82033   0.84607   0.84667
C          C       0.15393   0.97427   0.84667
C          C       0.02573   0.17967   0.84667
C          C       0.84633   0.48727   0.48667
C          C       0.51273   0.35907   0.48667
C          C       0.64093   0.15367   0.48667
H          H       0.48630   0.13850   0.18290
H          H       0.86150   0.34780   0.18290
H          H       0.65220   0.51370   0.18290
H          H       0.51370   0.86150   0.81710
H          H       0.13850   0.65220   0.81710
H          H       0.34780   0.48630   0.81710
H          H       0.15297   0.47183   0.51623
H          H       0.52817   0.68113   0.51623
H          H       0.31887   0.84703   0.51623
H          H       0.18037   0.19483   0.15043
H          H       0.80517   0.98553   0.15043
H          H       0.01447   0.81963   0.15043
H          H       0.81963   0.80517   0.84957
H          H       0.19483   0.01447   0.84957
H          H       0.98553   0.18037   0.84957
H          H       0.84703   0.52817   0.48377
H          H       0.47183   0.31887   0.48377
H          H       0.68113   0.15297   0.48377
C          C       0.52280   0.22580   0.11810
C          C       0.77420   0.29700   0.11810
C          C       0.70300   0.47720   0.11810
C          C       0.47720   0.77420   0.88190
C          C       0.22580   0.70300   0.88190
C          C       0.29700   0.52280   0.88190
C          C       0.18947   0.55913   0.45143
C          C       0.44087   0.63033   0.45143
C          C       0.36967   0.81053   0.45143
C          C       0.14387   0.10753   0.21523
C          C       0.89247   0.03633   0.21523
C          C       0.96367   0.85613   0.21523
C          C       0.85613   0.89247   0.78477
C          C       0.10753   0.96367   0.78477
C          C       0.03633   0.14387   0.78477
C          C       0.81053   0.44087   0.54857
C          C       0.55913   0.36967   0.54857
C          C       0.63033   0.18947   0.54857
H          H       0.54760   0.21670   0.07890
H          H       0.78330   0.33090   0.07890
H          H       0.66910   0.45240   0.07890
H          H       0.45240   0.78330   0.92110
H          H       0.21670   0.66910   0.92110
H          H       0.33090   0.54760   0.92110
H          H       0.21427   0.55003   0.41223
H          H       0.44997   0.66423   0.41223
H          H       0.33577   0.78573   0.41223
H          H       0.11907   0.11663   0.25443
H          H       0.88337   0.00243   0.25443
H          H       0.99757   0.88093   0.25443
H          H       0.88093   0.88337   0.74557
H          H       0.11663   0.99757   0.74557
H          H       0.00243   0.11907   0.74557
H          H       0.78573   0.44997   0.58777
H          H       0.55003   0.33577   0.58777
H          H       0.66423   0.21427   0.58777
C          C       0.52910   0.11910   0.43390
C          C       0.88090   0.41000   0.43390
C          C       0.59000   0.47090   0.43390
C          C       0.47090   0.88090   0.56610
C          C       0.11910   0.59000   0.56610
C          C       0.41000   0.52910   0.56610
C          C       0.19577   0.45243   0.76723
C          C       0.54757   0.74333   0.76723
C          C       0.25667   0.80423   0.76723
C          C       0.13757   0.21423   0.89943
C          C       0.78577   0.92333   0.89943
C          C       0.07667   0.86243   0.89943
C          C       0.86243   0.78577   0.10057
C          C       0.21423   0.07667   0.10057
C          C       0.92333   0.13757   0.10057
C          C       0.80423   0.54757   0.23277
C          C       0.45243   0.25667   0.23277
C          C       0.74333   0.19577   0.23277
C          C       0.51830   0.15540   0.49650
C          C       0.84460   0.36290   0.49650
C          C       0.63710   0.48170   0.49650
C          C       0.48170   0.84460   0.50350
C          C       0.15540   0.63710   0.50350
C          C       0.36290   0.51830   0.50350
C          C       0.18497   0.48873   0.82983
C          C       0.51127   0.69623   0.82983
C          C       0.30377   0.81503   0.82983
C          C       0.14837   0.17793   0.83683
C          C       0.82207   0.97043   0.83683
C          C       0.02957   0.85163   0.83683
C          C       0.85163   0.82207   0.16317
C          C       0.17793   0.02957   0.16317
C          C       0.97043   0.14837   0.16317
C          C       0.81503   0.51127   0.17017
C          C       0.48873   0.30377   0.17017
C          C       0.69623   0.18497   0.17017
H          H       0.47850   0.15660   0.49950
H          H       0.84340   0.32190   0.49950
H          H       0.67810   0.52150   0.49950
H          H       0.52150   0.84340   0.50050
H          H       0.15660   0.67810   0.50050
H          H       0.32190   0.47850   0.50050
H          H       0.14517   0.48993   0.83283
H          H       0.51007   0.65523   0.83283
H          H       0.34477   0.85483   0.83283
H          H       0.18817   0.17673   0.83383
H          H       0.82327   0.01143   0.83383
H          H       0.98857   0.81183   0.83383
H          H       0.81183   0.82327   0.16617
H          H       0.17673   0.98857   0.16617
H          H       0.01143   0.18817   0.16617
H          H       0.85483   0.51007   0.16717
H          H       0.48993   0.34477   0.16717
H          H       0.65523   0.14517   0.16717
C          C       0.56960   0.18930   0.55380
C          C       0.81070   0.38030   0.55380
C          C       0.61970   0.43040   0.55380
C          C       0.43040   0.81070   0.44620
C          C       0.18930   0.61970   0.44620
C          C       0.38030   0.56960   0.44620
C          C       0.23627   0.52263   0.88713
C          C       0.47737   0.71363   0.88713
C          C       0.28637   0.76373   0.88713
C          C       0.09707   0.14403   0.77953
C          C       0.85597   0.95303   0.77953
C          C       0.04697   0.90293   0.77953
C          C       0.90293   0.85597   0.22047
C          C       0.14403   0.04697   0.22047
C          C       0.95303   0.09707   0.22047
C          C       0.76373   0.47737   0.11287
C          C       0.52263   0.28637   0.11287
C          C       0.71363   0.23627   0.11287
H          H       0.56350   0.21300   0.59750
H          H       0.78700   0.35050   0.59750
H          H       0.64950   0.43650   0.59750
H          H       0.43650   0.78700   0.40250
H          H       0.21300   0.64950   0.40250
H          H       0.35050   0.56350   0.40250
H          H       0.23017   0.54633   0.93083
H          H       0.45367   0.68383   0.93083
H          H       0.31617   0.76983   0.93083
H          H       0.10317   0.12033   0.73583
H          H       0.87967   0.98283   0.73583
H          H       0.01717   0.89683   0.73583
H          H       0.89683   0.87967   0.26417
H          H       0.12033   0.01717   0.26417
H          H       0.98283   0.10317   0.26417
H          H       0.76983   0.45367   0.06917
H          H       0.54633   0.31617   0.06917
H          H       0.68383   0.23017   0.06917
C          C       0.29030   0.02930   0.47870
C          C       0.97070   0.26100   0.47870
C          C       0.73900   0.70970   0.47870
C          C       0.70970   0.97070   0.52130
C          C       0.02930   0.73900   0.52130
C          C       0.26100   0.29030   0.52130
C          C       0.95697   0.36263   0.81203
C          C       0.63737   0.59433   0.81203
C          C       0.40567   0.04303   0.81203
C          C       0.37637   0.30403   0.85463
C          C       0.69597   0.07233   0.85463
C          C       0.92767   0.62363   0.85463
C          C       0.62363   0.69597   0.14537
C          C       0.30403   0.92767   0.14537
C          C       0.07233   0.37637   0.14537
C          C       0.04303   0.63737   0.18797
C          C       0.36263   0.40567   0.18797
C          C       0.59433   0.95697   0.18797
C          C       0.24810   0.04960   0.44390
C          C       0.95040   0.19850   0.44390
C          C       0.80150   0.75190   0.44390
C          C       0.75190   0.95040   0.55610
C          C       0.04960   0.80150   0.55610
C          C       0.19850   0.24810   0.55610
C          C       0.91477   0.38293   0.77723
C          C       0.61707   0.53183   0.77723
C          C       0.46817   0.08523   0.77723
C          C       0.41857   0.28373   0.88943
C          C       0.71627   0.13483   0.88943
C          C       0.86517   0.58143   0.88943
C          C       0.58143   0.71627   0.11057
C          C       0.28373   0.86517   0.11057
C          C       0.13483   0.41857   0.11057
C          C       0.08523   0.61707   0.22277
C          C       0.38293   0.46817   0.22277
C          C       0.53183   0.91477   0.22277
H          H       0.25710   0.07050   0.39110
H          H       0.92950   0.18660   0.39110
H          H       0.81340   0.74290   0.39110
H          H       0.74290   0.92950   0.60890
H          H       0.07050   0.81340   0.60890
H          H       0.18660   0.25710   0.60890
H          H       0.92377   0.40383   0.72443
H          H       0.59617   0.51993   0.72443
H          H       0.48007   0.07623   0.72443
H          H       0.40957   0.26283   0.94223
H          H       0.73717   0.14673   0.94223
H          H       0.85327   0.59043   0.94223
H          H       0.59043   0.73717   0.05777
H          H       0.26283   0.85327   0.05777
H          H       0.14673   0.40957   0.05777
H          H       0.07623   0.59617   0.27557
H          H       0.40383   0.48007   0.27557
H          H       0.51993   0.92377   0.27557
C          C       0.19230   0.03810   0.48970
C          C       0.96190   0.15420   0.48970
C          C       0.84580   0.80770   0.48970
C          C       0.80770   0.96190   0.51030
C          C       0.03810   0.84580   0.51030
C          C       0.15420   0.19230   0.51030
C          C       0.85897   0.37143   0.82303
C          C       0.62857   0.48753   0.82303
C          C       0.51247   0.14103   0.82303
C          C       0.47437   0.29523   0.84363
C          C       0.70477   0.17913   0.84363
C          C       0.82087   0.52563   0.84363
C          C       0.52563   0.70477   0.15637
C          C       0.29523   0.82087   0.15637
C          C       0.17913   0.47437   0.15637
C          C       0.14103   0.62857   0.17697
C          C       0.37143   0.51247   0.17697
C          C       0.48753   0.85897   0.17697
H          H       0.16330   0.05170   0.46810
H          H       0.94830   0.11160   0.46810
H          H       0.88840   0.83670   0.46810
H          H       0.83670   0.94830   0.53190
H          H       0.05170   0.88840   0.53190
H          H       0.11160   0.16330   0.53190
H          H       0.82997   0.38503   0.80143
H          H       0.61497   0.44493   0.80143
H          H       0.55507   0.17003   0.80143
H          H       0.50337   0.28163   0.86523
H          H       0.71837   0.22173   0.86523
H          H       0.77827   0.49663   0.86523
H          H       0.49663   0.71837   0.13477
H          H       0.28163   0.77827   0.13477
H          H       0.22173   0.50337   0.13477
H          H       0.17003   0.61497   0.19857
H          H       0.38503   0.55507   0.19857
H          H       0.44493   0.82997   0.19857
Co         Co      0.39885   0.07006   0.34075
Co         Co      0.92994   0.32879   0.34075
Co         Co      0.67121   0.60115   0.34075
Co         Co      0.60115   0.92994   0.65925
Co         Co      0.07006   0.67121   0.65925
Co         Co      0.32879   0.39885   0.65925
Co         Co      0.06552   0.40339   0.67408
Co         Co      0.59661   0.66212   0.67408
Co         Co      0.33788   0.93448   0.67408
Co         Co      0.26782   0.26327   0.99258
Co         Co      0.73673   0.00454   0.99258
Co         Co      0.99546   0.73218   0.99258
Co         Co      0.73218   0.73673   0.00742
Co         Co      0.26327   0.99546   0.00742
Co         Co      0.00454   0.26782   0.00742
Co         Co      0.93448   0.59661   0.32592
Co         Co      0.40339   0.33788   0.32592
Co         Co      0.66212   0.06552   0.32592
N          N       0.35260   0.01120   0.24270
N          N       0.98880   0.34140   0.24270
N          N       0.65860   0.64740   0.24270
N          N       0.64740   0.98880   0.75730
N          N       0.01120   0.65860   0.75730
N          N       0.34140   0.35260   0.75730
N          N       0.01927   0.34453   0.57603
N          N       0.65547   0.67473   0.57603
N          N       0.32527   0.98073   0.57603
N          N       0.31407   0.32213   0.09063
N          N       0.67787   0.99193   0.09063
N          N       0.00807   0.68593   0.09063
N          N       0.68593   0.67787   0.90937
N          N       0.32213   0.00807   0.90937
N          N       0.99193   0.31407   0.90937
N          N       0.98073   0.65547   0.42397
N          N       0.34453   0.32527   0.42397
N          N       0.67473   0.01927   0.42397
N          N       0.41240   0.15970   0.30630
N          N       0.84030   0.25270   0.30630
N          N       0.74730   0.58760   0.30630
N          N       0.58760   0.84030   0.69370
N          N       0.15970   0.74730   0.69370
N          N       0.25270   0.41240   0.69370
N          N       0.07907   0.49303   0.63963
N          N       0.50697   0.58603   0.63963
N          N       0.41397   0.92093   0.63963
N          N       0.25427   0.17363   0.02703
N          N       0.82637   0.08063   0.02703
N          N       0.91937   0.74573   0.02703
N          N       0.74573   0.82637   0.97297
N          N       0.17363   0.91937   0.97297
N          N       0.08063   0.25427   0.97297
N          N       0.92093   0.50697   0.36037
N          N       0.49303   0.41397   0.36037
N          N       0.58603   0.07907   0.36037
N          N       0.48800   0.07960   0.36680
N          N       0.92040   0.40840   0.36680
N          N       0.59160   0.51200   0.36680
N          N       0.51200   0.92040   0.63320
N          N       0.07960   0.59160   0.63320
N          N       0.40840   0.48800   0.63320
N          N       0.15467   0.41293   0.70013
N          N       0.58707   0.74173   0.70013
N          N       0.25827   0.84533   0.70013
N          N       0.17867   0.25373   0.96653
N          N       0.74627   0.92493   0.96653
N          N       0.07507   0.82133   0.96653
N          N       0.82133   0.74627   0.03347
N          N       0.25373   0.07507   0.03347
N          N       0.92493   0.17867   0.03347
N          N       0.84533   0.58707   0.29987
N          N       0.41293   0.25827   0.29987
N          N       0.74173   0.15467   0.29987
N          N       0.34870   0.03290   0.44820
N          N       0.96710   0.31580   0.44820
N          N       0.68420   0.65130   0.44820
N          N       0.65130   0.96710   0.55180
N          N       0.03290   0.68420   0.55180
N          N       0.31580   0.34870   0.55180
N          N       0.01537   0.36623   0.78153
N          N       0.63377   0.64913   0.78153
N          N       0.35087   0.98463   0.78153
N          N       0.31797   0.30043   0.88513
N          N       0.69957   0.01753   0.88513
N          N       0.98247   0.68203   0.88513
N          N       0.68203   0.69957   0.11487
N          N       0.30043   0.98247   0.11487
N          N       0.01753   0.31797   0.11487
N          N       0.98463   0.63377   0.21847
N          N       0.36623   0.35087   0.21847
N          N       0.64913   0.01537   0.21847
