data_crystal

_cell_length_a    16.99100
_cell_length_b    16.99100
_cell_length_c    16.99100
_cell_angle_alpha 90.00000
_cell_angle_beta  90.00000
_cell_angle_gamma 90.00000

_space_group_name_Hall 'P 1'
_space_group_name_H-M_alt 'P 1'

loop_
_symmetry_equiv_pos_as_xyz
 'x,y,z'

loop_
_atom_site_label
_atom_site_type_symbol
_atom_site_fract_x
_atom_site_fract_y
_atom_site_fract_z
C          C       0.37705   0.00790   0.62295
C          C       0.36851   0.89914   0.68750
H          H       0.37770   0.85890   0.72340
C          C       0.40610   0.08550   0.59390
N          N       0.40973   0.96832   0.68278
Zn         Zn      0.50000   0.00000   0.75000
C          C       0.00790   0.62295   0.37705
C          C       0.89914   0.63149   0.31250
H          H       0.85890   0.62230   0.27660
C          C       0.08550   0.59390   0.40610
N          N       0.96832   0.59027   0.31722
Zn         Zn      0.00000   0.50000   0.25000
C          C       0.62295   0.99210   0.62295
C          C       0.63149   0.10086   0.68750
H          H       0.62230   0.14110   0.72340
C          C       0.59390   0.91450   0.59390
H          H       0.54130   0.92020   0.57430
H          H       0.59420   0.87720   0.63640
H          H       0.62760   0.89610   0.55250
N          N       0.59027   0.03168   0.68278
C          C       0.99210   0.37705   0.37705
C          C       0.10086   0.36851   0.31250
H          H       0.14110   0.37770   0.27660
C          C       0.91450   0.40610   0.40610
H          H       0.92020   0.45870   0.42570
H          H       0.87720   0.40580   0.36360
H          H       0.89610   0.37240   0.44750
N          N       0.03168   0.40973   0.31722
C          C       0.37705   0.99210   0.37705
C          C       0.36851   0.10086   0.31250
H          H       0.37770   0.14110   0.27660
C          C       0.40610   0.91450   0.40610
N          N       0.40973   0.03168   0.31722
Zn         Zn      0.50000   0.00000   0.25000
C          C       0.99210   0.62295   0.62295
C          C       0.10086   0.63149   0.68750
H          H       0.14110   0.62230   0.72340
C          C       0.91450   0.59390   0.59390
N          N       0.03168   0.59027   0.68278
Zn         Zn      0.00000   0.50000   0.75000
C          C       0.62295   0.00790   0.37705
C          C       0.63149   0.89914   0.31250
H          H       0.62230   0.85890   0.27660
C          C       0.59390   0.08550   0.40610
H          H       0.54130   0.07980   0.42570
H          H       0.59420   0.12280   0.36360
H          H       0.62760   0.10390   0.44750
N          N       0.59027   0.96832   0.31722
C          C       0.00790   0.37705   0.62295
C          C       0.89914   0.36851   0.68750
H          H       0.85890   0.37770   0.72340
C          C       0.08550   0.40610   0.59390
H          H       0.07980   0.45870   0.57430
H          H       0.12280   0.40580   0.63640
H          H       0.10390   0.37240   0.55250
N          N       0.96832   0.40973   0.68278
C          C       0.62295   0.37705   0.00790
C          C       0.68750   0.36851   0.89914
H          H       0.72340   0.37770   0.85890
C          C       0.59390   0.40610   0.08550
N          N       0.68278   0.40973   0.96832
Zn         Zn      0.75000   0.50000   0.00000
C          C       0.37705   0.37705   0.99210
C          C       0.36851   0.31250   0.10086
H          H       0.37770   0.27660   0.14110
C          C       0.40610   0.40610   0.91450
H          H       0.45870   0.42570   0.92020
H          H       0.40580   0.36360   0.87720
H          H       0.37240   0.44750   0.89610
N          N       0.40973   0.31722   0.03168
Zn         Zn      0.50000   0.25000   0.00000
C          C       0.37705   0.62295   0.00790
C          C       0.31250   0.63149   0.89914
H          H       0.27660   0.62230   0.85890
C          C       0.40610   0.59390   0.08550
N          N       0.31722   0.59027   0.96832
Zn         Zn      0.25000   0.50000   0.00000
C          C       0.62295   0.62295   0.99210
C          C       0.63149   0.68750   0.10086
H          H       0.62230   0.72340   0.14110
C          C       0.59390   0.59390   0.91450
H          H       0.54130   0.57430   0.92020
H          H       0.59420   0.63640   0.87720
H          H       0.62760   0.55250   0.89610
N          N       0.59027   0.68278   0.03168
Zn         Zn      0.50000   0.75000   0.00000
C          C       0.68750   0.63149   0.10086
H          H       0.72340   0.62230   0.14110
N          N       0.68278   0.59027   0.03168
C          C       0.63149   0.31250   0.89914
H          H       0.62230   0.27660   0.85890
H          H       0.54130   0.42570   0.07980
H          H       0.59420   0.36360   0.12280
H          H       0.62760   0.44750   0.10390
N          N       0.59027   0.31722   0.96832
C          C       0.31250   0.36851   0.10086
H          H       0.27660   0.37770   0.14110
N          N       0.31722   0.40973   0.03168
C          C       0.36851   0.68750   0.89914
H          H       0.37770   0.72340   0.85890
H          H       0.45870   0.57430   0.07980
H          H       0.40580   0.63640   0.12280
H          H       0.37240   0.55250   0.10390
N          N       0.40973   0.68278   0.96832
C          C       0.89914   0.68750   0.36851
H          H       0.85890   0.72340   0.37770
H          H       0.07980   0.57430   0.45870
H          H       0.12280   0.63640   0.40580
H          H       0.10390   0.55250   0.37240
N          N       0.96832   0.68278   0.40973
Zn         Zn      0.00000   0.75000   0.50000
C          C       0.89914   0.31250   0.63149
H          H       0.85890   0.27660   0.62230
N          N       0.96832   0.31722   0.59027
Zn         Zn      0.00000   0.25000   0.50000
C          C       0.31250   0.10086   0.36851
H          H       0.27660   0.14110   0.37770
H          H       0.42570   0.92020   0.45870
H          H       0.36360   0.87720   0.40580
H          H       0.44750   0.89610   0.37240
N          N       0.31722   0.03168   0.40973
Zn         Zn      0.25000   0.00000   0.50000
C          C       0.10086   0.68750   0.63149
H          H       0.14110   0.72340   0.62230
H          H       0.92020   0.57430   0.54130
H          H       0.87720   0.63640   0.59420
H          H       0.89610   0.55250   0.62760
N          N       0.03168   0.68278   0.59027
C          C       0.68750   0.89914   0.36851
H          H       0.72340   0.85890   0.37770
N          N       0.68278   0.96832   0.40973
Zn         Zn      0.75000   0.00000   0.50000
C          C       0.10086   0.31250   0.36851
H          H       0.14110   0.27660   0.37770
N          N       0.03168   0.31722   0.40973
C          C       0.31250   0.89914   0.63149
H          H       0.27660   0.85890   0.62230
H          H       0.42570   0.07980   0.54130
H          H       0.36360   0.12280   0.59420
H          H       0.44750   0.10390   0.62760
N          N       0.31722   0.96832   0.59027
C          C       0.68750   0.10086   0.63149
H          H       0.72340   0.14110   0.62230
N          N       0.68278   0.03168   0.59027
C          C       0.87705   0.50790   0.12295
C          C       0.86851   0.39914   0.18750
H          H       0.87770   0.35890   0.22340
C          C       0.90610   0.58550   0.09390
H          H       0.95870   0.57980   0.07430
H          H       0.90580   0.62280   0.13640
H          H       0.87240   0.60390   0.05250
N          N       0.90973   0.46832   0.18278
C          C       0.50790   0.12295   0.87705
C          C       0.39914   0.13149   0.81250
H          H       0.35890   0.12230   0.77660
C          C       0.58550   0.09390   0.90610
N          N       0.46832   0.09027   0.81722
C          C       0.12295   0.49210   0.12295
C          C       0.13149   0.60086   0.18750
H          H       0.12230   0.64110   0.22340
C          C       0.09390   0.41450   0.09390
H          H       0.04130   0.42020   0.07430
H          H       0.09420   0.37720   0.13640
H          H       0.12760   0.39610   0.05250
N          N       0.09027   0.53168   0.18278
C          C       0.49210   0.87705   0.87705
C          C       0.60086   0.86851   0.81250
H          H       0.64110   0.87770   0.77660
C          C       0.41450   0.90610   0.90610
H          H       0.42020   0.95870   0.92570
H          H       0.37720   0.90580   0.86360
H          H       0.39610   0.87240   0.94750
N          N       0.53168   0.90973   0.81722
C          C       0.87705   0.49210   0.87705
C          C       0.86851   0.60086   0.81250
H          H       0.87770   0.64110   0.77660
C          C       0.90610   0.41450   0.90610
H          H       0.95870   0.42020   0.92570
H          H       0.90580   0.37720   0.86360
H          H       0.87240   0.39610   0.94750
N          N       0.90973   0.53168   0.81722
C          C       0.49210   0.12295   0.12295
C          C       0.60086   0.13149   0.18750
H          H       0.64110   0.12230   0.22340
C          C       0.41450   0.09390   0.09390
N          N       0.53168   0.09027   0.18278
C          C       0.12295   0.50790   0.87705
C          C       0.13149   0.39914   0.81250
H          H       0.12230   0.35890   0.77660
C          C       0.09390   0.58550   0.90610
N          N       0.09027   0.46832   0.81722
C          C       0.50790   0.87705   0.12295
C          C       0.39914   0.86851   0.18750
H          H       0.35890   0.87770   0.22340
C          C       0.58550   0.90610   0.09390
N          N       0.46832   0.90973   0.18278
C          C       0.12295   0.87705   0.50790
C          C       0.18750   0.86851   0.39914
H          H       0.22340   0.87770   0.35890
C          C       0.09390   0.90610   0.58550
N          N       0.18278   0.90973   0.46832
C          C       0.87705   0.87705   0.49210
C          C       0.86851   0.81250   0.60086
H          H       0.87770   0.77660   0.64110
C          C       0.90610   0.90610   0.41450
H          H       0.95870   0.92570   0.42020
H          H       0.90580   0.86360   0.37720
H          H       0.87240   0.94750   0.39610
N          N       0.90973   0.81722   0.53168
C          C       0.87705   0.12295   0.50790
C          C       0.81250   0.13149   0.39914
H          H       0.77660   0.12230   0.35890
C          C       0.90610   0.09390   0.58550
N          N       0.81722   0.09027   0.46832
C          C       0.12295   0.12295   0.49210
C          C       0.13149   0.18750   0.60086
H          H       0.12230   0.22340   0.64110
C          C       0.09390   0.09390   0.41450
H          H       0.04130   0.07430   0.42020
H          H       0.09420   0.13640   0.37720
H          H       0.12760   0.05250   0.39610
N          N       0.09027   0.18278   0.53168
C          C       0.18750   0.13149   0.60086
H          H       0.22340   0.12230   0.64110
N          N       0.18278   0.09027   0.53168
C          C       0.13149   0.81250   0.39914
H          H       0.12230   0.77660   0.35890
H          H       0.04130   0.92570   0.57980
H          H       0.09420   0.86360   0.62280
H          H       0.12760   0.94750   0.60390
N          N       0.09027   0.81722   0.46832
C          C       0.81250   0.86851   0.60086
H          H       0.77660   0.87770   0.64110
N          N       0.81722   0.90973   0.53168
C          C       0.86851   0.18750   0.39914
H          H       0.87770   0.22340   0.35890
H          H       0.95870   0.07430   0.57980
H          H       0.90580   0.13640   0.62280
H          H       0.87240   0.05250   0.60390
N          N       0.90973   0.18278   0.46832
C          C       0.39914   0.18750   0.86851
H          H       0.35890   0.22340   0.87770
H          H       0.57980   0.07430   0.95870
H          H       0.62280   0.13640   0.90580
H          H       0.60390   0.05250   0.87240
N          N       0.46832   0.18278   0.90973
C          C       0.39914   0.81250   0.13149
H          H       0.35890   0.77660   0.12230
H          H       0.57980   0.92570   0.04130
H          H       0.62280   0.86360   0.09420
H          H       0.60390   0.94750   0.12760
N          N       0.46832   0.81722   0.09027
C          C       0.81250   0.60086   0.86851
H          H       0.77660   0.64110   0.87770
N          N       0.81722   0.53168   0.90973
C          C       0.60086   0.18750   0.13149
H          H       0.64110   0.22340   0.12230
H          H       0.42020   0.07430   0.04130
H          H       0.37720   0.13640   0.09420
H          H       0.39610   0.05250   0.12760
N          N       0.53168   0.18278   0.09027
C          C       0.18750   0.39914   0.86851
H          H       0.22340   0.35890   0.87770
H          H       0.07430   0.57980   0.95870
H          H       0.13640   0.62280   0.90580
H          H       0.05250   0.60390   0.87240
N          N       0.18278   0.46832   0.90973
C          C       0.60086   0.81250   0.86851
H          H       0.64110   0.77660   0.87770
N          N       0.53168   0.81722   0.90973
C          C       0.81250   0.39914   0.13149
H          H       0.77660   0.35890   0.12230
N          N       0.81722   0.46832   0.09027
C          C       0.18750   0.60086   0.13149
H          H       0.22340   0.64110   0.12230
N          N       0.18278   0.53168   0.09027
