data_crystal

_cell_length_a    22.98900
_cell_length_b    22.98900
_cell_length_c    15.76300
_cell_angle_alpha 90.00000
_cell_angle_beta  90.00000
_cell_angle_gamma 120.00000

_space_group_name_Hall 'P 1'
_space_group_name_H-M_alt 'P 1'

loop_
_symmetry_equiv_pos_as_xyz
 'x,y,z'

loop_
_atom_site_label
_atom_site_type_symbol
_atom_site_fract_x
_atom_site_fract_y
_atom_site_fract_z
C          C       0.69950   0.02850   0.17630
C          C       0.97150   0.67100   0.17630
C          C       0.32900   0.30050   0.17630
C          C       0.30050   0.97150   0.82370
C          C       0.02850   0.32900   0.82370
C          C       0.67100   0.69950   0.82370
C          C       0.36617   0.36183   0.50963
C          C       0.63817   0.00433   0.50963
C          C       0.99567   0.63383   0.50963
C          C       0.96717   0.30483   0.15703
C          C       0.69517   0.66233   0.15703
C          C       0.33767   0.03283   0.15703
C          C       0.03283   0.69517   0.84297
C          C       0.30483   0.33767   0.84297
C          C       0.66233   0.96717   0.84297
C          C       0.63383   0.63817   0.49037
C          C       0.36183   0.99567   0.49037
C          C       0.00433   0.36617   0.49037
H          H       0.73820   0.07030   0.17200
H          H       0.92970   0.66790   0.17200
H          H       0.33210   0.26180   0.17200
H          H       0.26180   0.92970   0.82800
H          H       0.07030   0.33210   0.82800
H          H       0.66790   0.73820   0.82800
H          H       0.40487   0.40363   0.50533
H          H       0.59637   0.00123   0.50533
H          H       0.99877   0.59513   0.50533
H          H       0.92847   0.26303   0.16133
H          H       0.73697   0.66543   0.16133
H          H       0.33457   0.07153   0.16133
H          H       0.07153   0.73697   0.83867
H          H       0.26303   0.33457   0.83867
H          H       0.66543   0.92847   0.83867
H          H       0.59513   0.59637   0.49467
H          H       0.40363   0.99877   0.49467
H          H       0.00123   0.40487   0.49467
C          C       0.60880   0.94520   0.22640
C          C       0.05480   0.66360   0.22640
C          C       0.33640   0.39120   0.22640
C          C       0.39120   0.05480   0.77360
C          C       0.94520   0.33640   0.77360
C          C       0.66360   0.60880   0.77360
C          C       0.27547   0.27853   0.55973
C          C       0.72147   0.99693   0.55973
C          C       0.00307   0.72453   0.55973
C          C       0.05787   0.38813   0.10693
C          C       0.61187   0.66973   0.10693
C          C       0.33027   0.94213   0.10693
C          C       0.94213   0.61187   0.89307
C          C       0.38813   0.33027   0.89307
C          C       0.66973   0.05787   0.89307
C          C       0.72453   0.72147   0.44027
C          C       0.27853   0.00307   0.44027
C          C       0.99693   0.27547   0.44027
C          C       0.55290   0.90140   0.27220
C          C       0.09860   0.65150   0.27220
C          C       0.34850   0.44710   0.27220
C          C       0.44710   0.09860   0.72780
C          C       0.90140   0.34850   0.72780
C          C       0.65150   0.55290   0.72780
C          C       0.21957   0.23473   0.60553
C          C       0.76527   0.98483   0.60553
C          C       0.01517   0.78043   0.60553
C          C       0.11377   0.43193   0.06113
C          C       0.56807   0.68183   0.06113
C          C       0.31817   0.88623   0.06113
C          C       0.88623   0.56807   0.93887
C          C       0.43193   0.31817   0.93887
C          C       0.68183   0.11377   0.93887
C          C       0.78043   0.76527   0.39447
C          C       0.23473   0.01517   0.39447
C          C       0.98483   0.21957   0.39447
H          H       0.54360   0.91310   0.32480
H          H       0.08690   0.63050   0.32480
H          H       0.36950   0.45640   0.32480
H          H       0.45640   0.08690   0.67520
H          H       0.91310   0.36950   0.67520
H          H       0.63050   0.54360   0.67520
H          H       0.21027   0.24643   0.65813
H          H       0.75357   0.96383   0.65813
H          H       0.03617   0.78973   0.65813
H          H       0.12307   0.42023   0.00853
H          H       0.57977   0.70283   0.00853
H          H       0.29717   0.87693   0.00853
H          H       0.87693   0.57977   0.99147
H          H       0.42023   0.29717   0.99147
H          H       0.70283   0.12307   0.99147
H          H       0.78973   0.75357   0.34187
H          H       0.24643   0.03617   0.34187
H          H       0.96383   0.21027   0.34187
C          C       0.51170   0.83960   0.23700
C          C       0.16040   0.67210   0.23700
C          C       0.32790   0.48830   0.23700
C          C       0.48830   0.16040   0.76300
C          C       0.83960   0.32790   0.76300
C          C       0.67210   0.51170   0.76300
C          C       0.17837   0.17293   0.57033
C          C       0.82707   0.00543   0.57033
C          C       0.99457   0.82163   0.57033
C          C       0.15497   0.49373   0.09633
C          C       0.50627   0.66123   0.09633
C          C       0.33877   0.84503   0.09633
C          C       0.84503   0.50627   0.90367
C          C       0.49373   0.33877   0.90367
C          C       0.66123   0.15497   0.90367
C          C       0.82163   0.82707   0.42967
C          C       0.17293   0.99457   0.42967
C          C       0.00543   0.17837   0.42967
H          H       0.47380   0.80870   0.26670
H          H       0.19130   0.66510   0.26670
H          H       0.33490   0.52620   0.26670
H          H       0.52620   0.19130   0.73330
H          H       0.80870   0.33490   0.73330
H          H       0.66510   0.47380   0.73330
H          H       0.14047   0.14203   0.60003
H          H       0.85797   0.99843   0.60003
H          H       0.00157   0.85953   0.60003
H          H       0.19287   0.52463   0.06663
H          H       0.47537   0.66823   0.06663
H          H       0.33177   0.80713   0.06663
H          H       0.80713   0.47537   0.93337
H          H       0.52463   0.33177   0.93337
H          H       0.66823   0.19287   0.93337
H          H       0.85953   0.85797   0.39997
H          H       0.14203   0.00157   0.39997
H          H       0.99843   0.14047   0.39997
C          C       0.52510   0.82150   0.15630
C          C       0.17850   0.70360   0.15630
C          C       0.29640   0.47490   0.15630
C          C       0.47490   0.17850   0.84370
C          C       0.82150   0.29640   0.84370
C          C       0.70360   0.52510   0.84370
C          C       0.19177   0.15483   0.48963
C          C       0.84517   0.03693   0.48963
C          C       0.96307   0.80823   0.48963
C          C       0.14157   0.51183   0.17703
C          C       0.48817   0.62973   0.17703
C          C       0.37027   0.85843   0.17703
C          C       0.85843   0.48817   0.82297
C          C       0.51183   0.37027   0.82297
C          C       0.62973   0.14157   0.82297
C          C       0.80823   0.84517   0.51037
C          C       0.15483   0.96307   0.51037
C          C       0.03693   0.19177   0.51037
H          H       0.49600   0.77900   0.13450
H          H       0.22100   0.71700   0.13450
H          H       0.28300   0.50400   0.13450
H          H       0.50400   0.22100   0.86550
H          H       0.77900   0.28300   0.86550
H          H       0.71700   0.49600   0.86550
H          H       0.16267   0.11233   0.46783
H          H       0.88767   0.05033   0.46783
H          H       0.94967   0.83733   0.46783
H          H       0.17067   0.55433   0.19883
H          H       0.44567   0.61633   0.19883
H          H       0.38367   0.82933   0.19883
H          H       0.82933   0.44567   0.80117
H          H       0.55433   0.38367   0.80117
H          H       0.61633   0.17067   0.80117
H          H       0.83733   0.88767   0.53217
H          H       0.11233   0.94967   0.53217
H          H       0.05033   0.16267   0.53217
C          C       0.73930   0.02820   0.47960
C          C       0.97180   0.71110   0.47960
C          C       0.28890   0.26070   0.47960
C          C       0.26070   0.97180   0.52040
C          C       0.02820   0.28890   0.52040
C          C       0.71110   0.73930   0.52040
C          C       0.40597   0.36153   0.81293
C          C       0.63847   0.04443   0.81293
C          C       0.95557   0.59403   0.81293
C          C       0.92737   0.30513   0.85373
C          C       0.69487   0.62223   0.85373
C          C       0.37777   0.07263   0.85373
C          C       0.07263   0.69487   0.14627
C          C       0.30513   0.37777   0.14627
C          C       0.62223   0.92737   0.14627
C          C       0.59403   0.63847   0.18707
C          C       0.36153   0.95557   0.18707
C          C       0.04443   0.40597   0.18707
C          C       0.80130   0.04800   0.44340
C          C       0.95200   0.75330   0.44340
C          C       0.24670   0.19870   0.44340
C          C       0.19870   0.95200   0.55660
C          C       0.04800   0.24670   0.55660
C          C       0.75330   0.80130   0.55660
C          C       0.46797   0.38133   0.77673
C          C       0.61867   0.08663   0.77673
C          C       0.91337   0.53203   0.77673
C          C       0.86537   0.28533   0.88993
C          C       0.71467   0.58003   0.88993
C          C       0.41997   0.13463   0.88993
C          C       0.13463   0.71467   0.11007
C          C       0.28533   0.41997   0.11007
C          C       0.58003   0.86537   0.11007
C          C       0.53203   0.61867   0.22327
C          C       0.38133   0.91337   0.22327
C          C       0.08663   0.46797   0.22327
H          H       0.81260   0.06790   0.39000
H          H       0.93210   0.74470   0.39000
H          H       0.25530   0.18740   0.39000
H          H       0.18740   0.93210   0.61000
H          H       0.06790   0.25530   0.61000
H          H       0.74470   0.81260   0.61000
H          H       0.47927   0.40123   0.72333
H          H       0.59877   0.07803   0.72333
H          H       0.92197   0.52073   0.72333
H          H       0.85407   0.26543   0.94333
H          H       0.73457   0.58863   0.94333
H          H       0.41137   0.14593   0.94333
H          H       0.14593   0.73457   0.05667
H          H       0.26543   0.41137   0.05667
H          H       0.58863   0.85407   0.05667
H          H       0.52073   0.59877   0.27667
H          H       0.40123   0.92197   0.27667
H          H       0.07803   0.47927   0.27667
C          C       0.53450   0.05960   0.32690
C          C       0.94040   0.47490   0.32690
C          C       0.52510   0.46550   0.32690
C          C       0.46550   0.94040   0.67310
C          C       0.05960   0.52510   0.67310
C          C       0.47490   0.53450   0.67310
C          C       0.20117   0.39293   0.66023
C          C       0.60707   0.80823   0.66023
C          C       0.19177   0.79883   0.66023
C          C       0.13217   0.27373   0.00643
C          C       0.72627   0.85843   0.00643
C          C       0.14157   0.86783   0.00643
C          C       0.86783   0.72627   0.99357
C          C       0.27373   0.14157   0.99357
C          C       0.85843   0.13217   0.99357
C          C       0.79883   0.60707   0.33977
C          C       0.39293   0.19177   0.33977
C          C       0.80823   0.20117   0.33977
H          H       0.52300   0.03190   0.27960
H          H       0.96810   0.49110   0.27960
H          H       0.50890   0.47700   0.27960
H          H       0.47700   0.96810   0.72040
H          H       0.03190   0.50890   0.72040
H          H       0.49110   0.52300   0.72040
H          H       0.18967   0.36523   0.61293
H          H       0.63477   0.82443   0.61293
H          H       0.17557   0.81033   0.61293
H          H       0.14367   0.30143   0.05373
H          H       0.69857   0.84223   0.05373
H          H       0.15777   0.85633   0.05373
H          H       0.85633   0.69857   0.94627
H          H       0.30143   0.15777   0.94627
H          H       0.84223   0.14367   0.94627
H          H       0.81033   0.63477   0.38707
H          H       0.36523   0.17557   0.38707
H          H       0.82443   0.18967   0.38707
C          C       0.59030   0.12020   0.43060
C          C       0.87980   0.47010   0.43060
C          C       0.52990   0.40970   0.43060
C          C       0.40970   0.87980   0.56940
C          C       0.12020   0.52990   0.56940
C          C       0.47010   0.59030   0.56940
C          C       0.25697   0.45353   0.76393
C          C       0.54647   0.80343   0.76393
C          C       0.19657   0.74303   0.76393
C          C       0.07637   0.21313   0.90273
C          C       0.78687   0.86323   0.90273
C          C       0.13677   0.92363   0.90273
C          C       0.92363   0.78687   0.09727
C          C       0.21313   0.13677   0.09727
C          C       0.86323   0.07637   0.09727
C          C       0.74303   0.54647   0.23607
C          C       0.45353   0.19657   0.23607
C          C       0.80343   0.25697   0.23607
C          C       0.63720   0.15650   0.49660
C          C       0.84350   0.48070   0.49660
C          C       0.51930   0.36280   0.49660
C          C       0.36280   0.84350   0.50340
C          C       0.15650   0.51930   0.50340
C          C       0.48070   0.63720   0.50340
C          C       0.30387   0.48983   0.82993
C          C       0.51017   0.81403   0.82993
C          C       0.18597   0.69613   0.82993
C          C       0.02947   0.17683   0.83673
C          C       0.82317   0.85263   0.83673
C          C       0.14737   0.97053   0.83673
C          C       0.97053   0.82317   0.16327
C          C       0.17683   0.14737   0.16327
C          C       0.85263   0.02947   0.16327
C          C       0.69613   0.51017   0.17007
C          C       0.48983   0.18597   0.17007
C          C       0.81403   0.30387   0.17007
H          H       0.67730   0.15620   0.50090
H          H       0.84380   0.52110   0.50090
H          H       0.47890   0.32270   0.50090
H          H       0.32270   0.84380   0.49910
H          H       0.15620   0.47890   0.49910
H          H       0.52110   0.67730   0.49910
H          H       0.34397   0.48953   0.83423
H          H       0.51047   0.85443   0.83423
H          H       0.14557   0.65603   0.83423
H          H       0.98937   0.17713   0.83243
H          H       0.82287   0.81223   0.83243
H          H       0.18777   0.01063   0.83243
H          H       0.01063   0.82287   0.16757
H          H       0.17713   0.18777   0.16757
H          H       0.81223   0.98937   0.16757
H          H       0.65603   0.51047   0.16577
H          H       0.48953   0.14557   0.16577
H          H       0.85443   0.34397   0.16577
C          C       0.74430   0.19720   0.24000
C          C       0.80280   0.54710   0.24000
C          C       0.45290   0.25570   0.24000
C          C       0.25570   0.80280   0.76000
C          C       0.19720   0.45290   0.76000
C          C       0.54710   0.74430   0.76000
C          C       0.41097   0.53053   0.57333
C          C       0.46947   0.88043   0.57333
C          C       0.11957   0.58903   0.57333
C          C       0.92237   0.13613   0.09333
C          C       0.86387   0.78623   0.09333
C          C       0.21377   0.07763   0.09333
C          C       0.07763   0.86387   0.90667
C          C       0.13613   0.21377   0.90667
C          C       0.78623   0.92237   0.90667
C          C       0.58903   0.46947   0.42667
C          C       0.53053   0.11957   0.42667
C          C       0.88043   0.41097   0.42667
C          C       0.69050   0.17970   0.18020
C          C       0.82030   0.51080   0.18020
C          C       0.48920   0.30950   0.18020
C          C       0.30950   0.82030   0.81980
C          C       0.17970   0.48920   0.81980
C          C       0.51080   0.69050   0.81980
C          C       0.35717   0.51303   0.51353
C          C       0.48697   0.84413   0.51353
C          C       0.15587   0.64283   0.51353
C          C       0.97617   0.15363   0.15313
C          C       0.84637   0.82253   0.15313
C          C       0.17747   0.02383   0.15313
C          C       0.02383   0.84637   0.84687
C          C       0.15363   0.17747   0.84687
C          C       0.82253   0.97617   0.84687
C          C       0.64283   0.48697   0.48647
C          C       0.51303   0.15587   0.48647
C          C       0.84413   0.35717   0.48647
H          H       0.65050   0.13890   0.18320
H          H       0.86110   0.51160   0.18320
H          H       0.48840   0.34950   0.18320
H          H       0.34950   0.86110   0.81680
H          H       0.13890   0.48840   0.81680
H          H       0.51160   0.65050   0.81680
H          H       0.31717   0.47223   0.51653
H          H       0.52777   0.84493   0.51653
H          H       0.15507   0.68283   0.51653
H          H       0.01617   0.19443   0.15013
H          H       0.80557   0.82173   0.15013
H          H       0.17827   0.98383   0.15013
H          H       0.98383   0.80557   0.84987
H          H       0.19443   0.17827   0.84987
H          H       0.82173   0.01617   0.84987
H          H       0.68283   0.52777   0.48347
H          H       0.47223   0.15507   0.48347
H          H       0.84493   0.31717   0.48347
C          C       0.62190   0.19150   0.55290
C          C       0.80850   0.43040   0.55290
C          C       0.56960   0.37810   0.55290
C          C       0.37810   0.80850   0.44710
C          C       0.19150   0.56960   0.44710
C          C       0.43040   0.62190   0.44710
C          C       0.28857   0.52483   0.88623
C          C       0.47517   0.76373   0.88623
C          C       0.23627   0.71143   0.88623
C          C       0.04477   0.14183   0.78043
C          C       0.85817   0.90293   0.78043
C          C       0.09707   0.95523   0.78043
C          C       0.95523   0.85817   0.21957
C          C       0.14183   0.09707   0.21957
C          C       0.90293   0.04477   0.21957
C          C       0.71143   0.47517   0.11377
C          C       0.52483   0.23627   0.11377
C          C       0.76373   0.28857   0.11377
H          H       0.65270   0.21580   0.59530
H          H       0.78420   0.43690   0.59530
H          H       0.56310   0.34730   0.59530
H          H       0.34730   0.78420   0.40470
H          H       0.21580   0.56310   0.40470
H          H       0.43690   0.65270   0.40470
H          H       0.31937   0.54913   0.92863
H          H       0.45087   0.77023   0.92863
H          H       0.22977   0.68063   0.92863
H          H       0.01397   0.11753   0.73803
H          H       0.88247   0.89643   0.73803
H          H       0.10357   0.98603   0.73803
H          H       0.98603   0.88247   0.26197
H          H       0.11753   0.10357   0.26197
H          H       0.89643   0.01397   0.26197
H          H       0.68063   0.45087   0.07137
H          H       0.54913   0.22977   0.07137
H          H       0.77023   0.31937   0.07137
C          C       0.70170   0.22710   0.11750
C          C       0.77290   0.47460   0.11750
C          C       0.52540   0.29830   0.11750
C          C       0.29830   0.77290   0.88250
C          C       0.22710   0.52540   0.88250
C          C       0.47460   0.70170   0.88250
C          C       0.36837   0.56043   0.45083
C          C       0.43957   0.80793   0.45083
C          C       0.19207   0.63163   0.45083
C          C       0.96497   0.10623   0.21583
C          C       0.89377   0.85873   0.21583
C          C       0.14127   0.03503   0.21583
C          C       0.03503   0.89377   0.78417
C          C       0.10623   0.14127   0.78417
C          C       0.85873   0.96497   0.78417
C          C       0.63163   0.43957   0.54917
C          C       0.56043   0.19207   0.54917
C          C       0.80793   0.36837   0.54917
H          H       0.66830   0.21840   0.07800
H          H       0.78160   0.44990   0.07800
H          H       0.55010   0.33170   0.07800
H          H       0.33170   0.78160   0.92200
H          H       0.21840   0.55010   0.92200
H          H       0.44990   0.66830   0.92200
H          H       0.33497   0.55173   0.41133
H          H       0.44827   0.78323   0.41133
H          H       0.21677   0.66503   0.41133
H          H       0.99837   0.11493   0.25533
H          H       0.88507   0.88343   0.25533
H          H       0.11657   0.00163   0.25533
H          H       0.00163   0.88507   0.74467
H          H       0.11493   0.11657   0.74467
H          H       0.88343   0.99837   0.74467
H          H       0.66503   0.44827   0.58867
H          H       0.55173   0.21677   0.58867
H          H       0.78323   0.33497   0.58867
N          N       0.65890   0.01130   0.24330
N          N       0.98870   0.64760   0.24330
N          N       0.35240   0.34110   0.24330
N          N       0.34110   0.98870   0.75670
N          N       0.01130   0.35240   0.75670
N          N       0.64760   0.65890   0.75670
N          N       0.32557   0.34463   0.57663
N          N       0.65537   0.98093   0.57663
N          N       0.01907   0.67443   0.57663
N          N       0.00777   0.32203   0.09003
N          N       0.67797   0.68573   0.09003
N          N       0.31427   0.99223   0.09003
N          N       0.99223   0.67797   0.90997
N          N       0.32203   0.31427   0.90997
N          N       0.68573   0.00777   0.90997
N          N       0.67443   0.65537   0.42337
N          N       0.34463   0.01907   0.42337
N          N       0.98093   0.32557   0.42337
N          N       0.74800   0.16040   0.30920
N          N       0.83960   0.58760   0.30920
N          N       0.41240   0.25200   0.30920
N          N       0.25200   0.83960   0.69080
N          N       0.16040   0.41240   0.69080
N          N       0.58760   0.74800   0.69080
N          N       0.41467   0.49373   0.64253
N          N       0.50627   0.92093   0.64253
N          N       0.07907   0.58533   0.64253
N          N       0.91867   0.17293   0.02413
N          N       0.82707   0.74573   0.02413
N          N       0.25427   0.08133   0.02413
N          N       0.08133   0.82707   0.97587
N          N       0.17293   0.25427   0.97587
N          N       0.74573   0.91867   0.97587
N          N       0.58533   0.50627   0.35747
N          N       0.49373   0.07907   0.35747
N          N       0.92093   0.41467   0.35747
N          N       0.68480   0.03270   0.44850
N          N       0.96730   0.65210   0.44850
N          N       0.34790   0.31520   0.44850
N          N       0.31520   0.96730   0.55150
N          N       0.03270   0.34790   0.55150
N          N       0.65210   0.68480   0.55150
N          N       0.35147   0.36603   0.78183
N          N       0.63397   0.98543   0.78183
N          N       0.01457   0.64853   0.78183
N          N       0.98187   0.30063   0.88483
N          N       0.69937   0.68123   0.88483
N          N       0.31877   0.01813   0.88483
N          N       0.01813   0.69937   0.11517
N          N       0.30063   0.31877   0.11517
N          N       0.68123   0.98187   0.11517
N          N       0.64853   0.63397   0.21817
N          N       0.36603   0.01457   0.21817
N          N       0.98543   0.35147   0.21817
N          N       0.59230   0.08110   0.36610
N          N       0.91890   0.51120   0.36610
N          N       0.48880   0.40770   0.36610
N          N       0.40770   0.91890   0.63390
N          N       0.08110   0.48880   0.63390
N          N       0.51120   0.59230   0.63390
N          N       0.25897   0.41443   0.69943
N          N       0.58557   0.84453   0.69943
N          N       0.15547   0.74103   0.69943
N          N       0.07437   0.25223   0.96723
N          N       0.74777   0.82213   0.96723
N          N       0.17787   0.92563   0.96723
N          N       0.92563   0.74777   0.03277
N          N       0.25223   0.17787   0.03277
N          N       0.82213   0.07437   0.03277
N          N       0.74103   0.58557   0.30057
N          N       0.41443   0.15547   0.30057
N          N       0.84453   0.25897   0.30057
Zn         Zn      0.67190   0.07047   0.34160
Zn         Zn      0.92953   0.60143   0.34160
Zn         Zn      0.39857   0.32810   0.34160
Zn         Zn      0.32810   0.92953   0.65840
Zn         Zn      0.07047   0.39857   0.65840
Zn         Zn      0.60143   0.67190   0.65840
Zn         Zn      0.33857   0.40380   0.67493
Zn         Zn      0.59620   0.93476   0.67493
Zn         Zn      0.06524   0.66143   0.67493
Zn         Zn      0.99477   0.26286   0.99173
Zn         Zn      0.73714   0.73190   0.99173
Zn         Zn      0.26810   0.00523   0.99173
Zn         Zn      0.00523   0.73714   0.00827
Zn         Zn      0.26286   0.26810   0.00827
Zn         Zn      0.73190   0.99477   0.00827
Zn         Zn      0.66143   0.59620   0.32507
Zn         Zn      0.40380   0.06524   0.32507
Zn         Zn      0.93476   0.33857   0.32507
