data_crystal

_cell_length_a    25.49397
_cell_length_b    25.49397
_cell_length_c    25.49397
_cell_angle_alpha 87.97437
_cell_angle_beta  87.97437
_cell_angle_gamma 87.97437

_space_group_name_Hall 'P 1'
_space_group_name_H-M_alt 'P 1'

loop_
_symmetry_equiv_pos_as_xyz
 'x,y,z'

loop_
_atom_site_label
_atom_site_type_symbol
_atom_site_fract_x
_atom_site_fract_y
_atom_site_fract_z
C          C       0.60070   0.17660   0.66200
C          C       0.66200   0.60070   0.17660
C          C       0.17660   0.66200   0.60070
C          C       0.39930   0.82340   0.33800
C          C       0.33800   0.39930   0.82340
C          C       0.82340   0.33800   0.39930
C          C       0.62080   0.22130   0.68090
C          C       0.68090   0.62080   0.22130
C          C       0.22130   0.68090   0.62080
C          C       0.37920   0.77870   0.31910
C          C       0.31910   0.37920   0.77870
C          C       0.77870   0.31910   0.37920
C          C       0.75380   0.40320   0.34580
C          C       0.34580   0.75380   0.40320
C          C       0.40320   0.34580   0.75380
C          C       0.24620   0.59680   0.65420
C          C       0.65420   0.24620   0.59680
C          C       0.59680   0.65420   0.24620
C          C       0.79900   0.42220   0.36410
C          C       0.36410   0.79900   0.42220
C          C       0.42220   0.36410   0.79900
C          C       0.20100   0.57780   0.63590
C          C       0.63590   0.20100   0.57780
C          C       0.57780   0.63590   0.20100
C          C       0.32867   0.69617   0.32907
C          C       0.32907   0.32867   0.69617
C          C       0.69617   0.32907   0.32867
C          C       0.67133   0.30383   0.67093
C          C       0.67093   0.67133   0.30383
C          C       0.30383   0.67093   0.67133
C          C       0.28324   0.67420   0.35048
C          C       0.35048   0.28324   0.67420
C          C       0.67420   0.35048   0.28324
C          C       0.71676   0.32580   0.64952
C          C       0.64952   0.71676   0.32580
C          C       0.32580   0.64952   0.71676
C          C       0.26032   0.63245   0.32899
C          C       0.32899   0.26032   0.63245
C          C       0.63245   0.32899   0.26032
C          C       0.73968   0.36755   0.67101
C          C       0.67101   0.73968   0.36755
C          C       0.36755   0.67101   0.73968
C          C       0.28285   0.61124   0.28306
C          C       0.28306   0.28285   0.61124
C          C       0.61124   0.28306   0.28285
C          C       0.71715   0.38876   0.71694
C          C       0.71694   0.71715   0.38876
C          C       0.38876   0.71694   0.71715
C          C       0.32903   0.63212   0.26064
C          C       0.26064   0.32903   0.63212
C          C       0.63212   0.26064   0.32903
C          C       0.67097   0.36788   0.73936
C          C       0.73936   0.67097   0.36788
C          C       0.36788   0.73936   0.67097
C          C       0.35061   0.67398   0.28324
C          C       0.28324   0.35061   0.67398
C          C       0.67398   0.28324   0.35061
C          C       0.64939   0.32602   0.71676
C          C       0.71676   0.64939   0.32602
C          C       0.32602   0.71676   0.64939
C          C       0.35043   0.74295   0.35041
C          C       0.35041   0.35043   0.74295
C          C       0.74295   0.35041   0.35043
C          C       0.64957   0.25705   0.64959
C          C       0.64959   0.64957   0.25705
C          C       0.25705   0.64959   0.64957
C          C       0.35117   0.61046   0.21018
C          C       0.21018   0.35117   0.61046
C          C       0.61046   0.21018   0.35117
C          C       0.64883   0.38954   0.78982
C          C       0.78982   0.64883   0.38954
C          C       0.38954   0.78982   0.64883
C          C       0.31923   0.59287   0.17379
C          C       0.17379   0.31923   0.59287
C          C       0.59287   0.17379   0.31923
C          C       0.68077   0.40713   0.82621
C          C       0.82621   0.68077   0.40713
C          C       0.40713   0.82621   0.68077
C          C       0.33876   0.57314   0.12608
C          C       0.12608   0.33876   0.57314
C          C       0.57314   0.12608   0.33876
C          C       0.66124   0.42686   0.87392
C          C       0.87392   0.66124   0.42686
C          C       0.42686   0.87392   0.66124
C          C       0.39322   0.57012   0.11697
C          C       0.11697   0.39322   0.57012
C          C       0.57012   0.11697   0.39322
C          C       0.60678   0.42988   0.88303
C          C       0.88303   0.60678   0.42988
C          C       0.42988   0.88303   0.60678
C          C       0.42565   0.58726   0.15344
C          C       0.15344   0.42565   0.58726
C          C       0.58726   0.15344   0.42565
C          C       0.57435   0.41274   0.84656
C          C       0.84656   0.57435   0.41274
C          C       0.41274   0.84656   0.57435
C          C       0.40518   0.60760   0.20106
C          C       0.20106   0.40518   0.60760
C          C       0.60760   0.20106   0.40518
C          C       0.59482   0.39240   0.79894
C          C       0.79894   0.59482   0.39240
C          C       0.39240   0.79894   0.59482
C          C       0.21059   0.61034   0.35124
C          C       0.35124   0.21059   0.61034
C          C       0.61034   0.35124   0.21059
C          C       0.78941   0.38966   0.64876
C          C       0.64876   0.78941   0.38966
C          C       0.38966   0.64876   0.78941
C          C       0.17381   0.59291   0.31911
C          C       0.31911   0.17381   0.59291
C          C       0.59291   0.31911   0.17381
C          C       0.82619   0.40709   0.68089
C          C       0.68089   0.82619   0.40709
C          C       0.40709   0.68089   0.82619
C          C       0.12576   0.57326   0.33896
C          C       0.33896   0.12576   0.57326
C          C       0.57326   0.33896   0.12576
C          C       0.87424   0.42674   0.66104
C          C       0.66104   0.87424   0.42674
C          C       0.42674   0.66104   0.87424
C          C       0.11675   0.57014   0.39324
C          C       0.39324   0.11675   0.57014
C          C       0.57014   0.39324   0.11675
C          C       0.88325   0.42986   0.60676
C          C       0.60676   0.88325   0.42986
C          C       0.42986   0.60676   0.88325
C          C       0.15340   0.58735   0.42575
C          C       0.42575   0.15340   0.58735
C          C       0.58735   0.42575   0.15340
C          C       0.84660   0.41265   0.57425
C          C       0.57425   0.84660   0.41265
C          C       0.41265   0.57425   0.84660
C          C       0.20087   0.60789   0.40505
C          C       0.40505   0.20087   0.60789
C          C       0.60789   0.40505   0.20087
C          C       0.79913   0.39211   0.59495
C          C       0.59495   0.79913   0.39211
C          C       0.39211   0.59495   0.79913
C          C       0.41319   0.54799   0.06564
C          C       0.06564   0.41319   0.54799
C          C       0.54799   0.06564   0.41319
C          C       0.58681   0.45201   0.93436
C          C       0.93436   0.58681   0.45201
C          C       0.45201   0.93436   0.58681
C          C       0.06565   0.54780   0.41322
C          C       0.41322   0.06565   0.54780
C          C       0.54780   0.41322   0.06565
C          C       0.93435   0.45220   0.58678
C          C       0.58678   0.93435   0.45220
C          C       0.45220   0.58678   0.93435
C          C       0.69870   0.47290   0.09390
C          C       0.09390   0.69870   0.47290
C          C       0.47290   0.09390   0.69870
C          C       0.30130   0.52710   0.90610
C          C       0.90610   0.30130   0.52710
C          C       0.52710   0.90610   0.30130
C          C       0.72510   0.38350   0.12030
C          C       0.12030   0.72510   0.38350
C          C       0.38350   0.12030   0.72510
C          C       0.27490   0.61650   0.87970
C          C       0.87970   0.27490   0.61650
C          C       0.61650   0.87970   0.27490
C          C       0.76210   0.46090   0.16430
C          C       0.16430   0.76210   0.46090
C          C       0.46090   0.16430   0.76210
C          C       0.23790   0.53910   0.83570
C          C       0.83570   0.23790   0.53910
C          C       0.53910   0.83570   0.23790
C          C       0.47250   0.69800   0.09380
C          C       0.09380   0.47250   0.69800
C          C       0.69800   0.09380   0.47250
C          C       0.52750   0.30200   0.90620
C          C       0.90620   0.52750   0.30200
C          C       0.30200   0.90620   0.52750
C          C       0.38360   0.72530   0.12240
C          C       0.12240   0.38360   0.72530
C          C       0.72530   0.12240   0.38360
C          C       0.61640   0.27470   0.87760
C          C       0.87760   0.61640   0.27470
C          C       0.27470   0.87760   0.61640
C          C       0.46060   0.76360   0.16310
C          C       0.16310   0.46060   0.76360
C          C       0.76360   0.16310   0.46060
C          C       0.53940   0.23640   0.83690
C          C       0.83690   0.53940   0.23640
C          C       0.23640   0.83690   0.53940
C          C       0.60774   0.16654   0.60793
C          C       0.60793   0.60774   0.16654
C          C       0.16654   0.60793   0.60774
C          C       0.39226   0.83346   0.39207
C          C       0.39207   0.39226   0.83346
C          C       0.83346   0.39207   0.39226
C          C       0.58754   0.11733   0.58758
C          C       0.58758   0.58754   0.11733
C          C       0.11733   0.58758   0.58754
C          C       0.41246   0.88267   0.41242
C          C       0.41242   0.41246   0.88267
C          C       0.88267   0.41242   0.41246
H          H       0.37390   0.69060   0.13410
H          H       0.13410   0.37390   0.69060
H          H       0.69060   0.13410   0.37390
H          H       0.62610   0.30940   0.86590
H          H       0.86590   0.62610   0.30940
H          H       0.30940   0.86590   0.62610
H          H       0.58270   0.15330   0.68440
H          H       0.68440   0.58270   0.15330
H          H       0.15330   0.68440   0.58270
H          H       0.41730   0.84670   0.31560
H          H       0.31560   0.41730   0.84670
H          H       0.84670   0.31560   0.41730
H          H       0.61490   0.22820   0.71620
H          H       0.71620   0.61490   0.22820
H          H       0.22820   0.71620   0.61490
H          H       0.38510   0.77180   0.28380
H          H       0.28380   0.38510   0.77180
H          H       0.77180   0.28380   0.38510
H          H       0.72980   0.42620   0.32970
H          H       0.32970   0.72980   0.42620
H          H       0.42620   0.32970   0.72980
H          H       0.27020   0.57380   0.67030
H          H       0.67030   0.27020   0.57380
H          H       0.57380   0.67030   0.27020
H          H       0.80630   0.45730   0.35710
H          H       0.35710   0.80630   0.45730
H          H       0.45730   0.35710   0.80630
H          H       0.19370   0.54270   0.64290
H          H       0.64290   0.19370   0.54270
H          H       0.54270   0.64290   0.19370
H          H       0.26760   0.68840   0.38060
H          H       0.38060   0.26760   0.68840
H          H       0.68840   0.38060   0.26760
H          H       0.73240   0.31160   0.61940
H          H       0.61940   0.73240   0.31160
H          H       0.31160   0.61940   0.73240
H          H       0.26720   0.58350   0.26750
H          H       0.26750   0.26720   0.58350
H          H       0.58350   0.26750   0.26720
H          H       0.73280   0.41650   0.73250
H          H       0.73250   0.73280   0.41650
H          H       0.41650   0.73250   0.73280
H          H       0.38070   0.68820   0.26770
H          H       0.26770   0.38070   0.68820
H          H       0.68820   0.26770   0.38070
H          H       0.61930   0.31180   0.73230
H          H       0.73230   0.61930   0.31180
H          H       0.31180   0.73230   0.61930
H          H       0.28320   0.59360   0.18080
H          H       0.18080   0.28320   0.59360
H          H       0.59360   0.18080   0.28320
H          H       0.71680   0.40640   0.81920
H          H       0.81920   0.71680   0.40640
H          H       0.40640   0.81920   0.71680
H          H       0.31610   0.56240   0.10110
H          H       0.10110   0.31610   0.56240
H          H       0.56240   0.10110   0.31610
H          H       0.68390   0.43760   0.89890
H          H       0.89890   0.68390   0.43760
H          H       0.43760   0.89890   0.68390
H          H       0.46180   0.58560   0.14700
H          H       0.14700   0.46180   0.58560
H          H       0.58560   0.14700   0.46180
H          H       0.53820   0.41440   0.85300
H          H       0.85300   0.53820   0.41440
H          H       0.41440   0.85300   0.53820
H          H       0.42760   0.61880   0.22600
H          H       0.22600   0.42760   0.61880
H          H       0.61880   0.22600   0.42760
H          H       0.57240   0.38120   0.77400
H          H       0.77400   0.57240   0.38120
H          H       0.38120   0.77400   0.57240
H          H       0.18050   0.59400   0.28310
H          H       0.28310   0.18050   0.59400
H          H       0.59400   0.28310   0.18050
H          H       0.81950   0.40600   0.71690
H          H       0.71690   0.81950   0.40600
H          H       0.40600   0.71690   0.81950
H          H       0.10070   0.56260   0.31630
H          H       0.31630   0.10070   0.56260
H          H       0.56260   0.31630   0.10070
H          H       0.89930   0.43740   0.68370
H          H       0.68370   0.89930   0.43740
H          H       0.43740   0.68370   0.89930
H          H       0.14690   0.58560   0.46190
H          H       0.46190   0.14690   0.58560
H          H       0.58560   0.46190   0.14690
H          H       0.85310   0.41440   0.53810
H          H       0.53810   0.85310   0.41440
H          H       0.41440   0.53810   0.85310
H          H       0.22550   0.61960   0.42760
H          H       0.42760   0.22550   0.61960
H          H       0.61960   0.42760   0.22550
H          H       0.77450   0.38040   0.57240
H          H       0.57240   0.77450   0.38040
H          H       0.38040   0.57240   0.77450
H          H       0.75000   0.36670   0.14340
H          H       0.14340   0.75000   0.36670
H          H       0.36670   0.14340   0.75000
H          H       0.25000   0.63330   0.85660
H          H       0.85660   0.25000   0.63330
H          H       0.63330   0.85660   0.25000
H          H       0.73270   0.37280   0.08500
H          H       0.08500   0.73270   0.37280
H          H       0.37280   0.08500   0.73270
H          H       0.26730   0.62720   0.91500
H          H       0.91500   0.26730   0.62720
H          H       0.62720   0.91500   0.26730
H          H       0.69030   0.37340   0.13100
H          H       0.13100   0.69030   0.37340
H          H       0.37340   0.13100   0.69030
H          H       0.30970   0.62660   0.86900
H          H       0.86900   0.30970   0.62660
H          H       0.62660   0.86900   0.30970
H          H       0.78180   0.43280   0.18110
H          H       0.18110   0.78180   0.43280
H          H       0.43280   0.18110   0.78180
H          H       0.21820   0.56720   0.81890
H          H       0.81890   0.21820   0.56720
H          H       0.56720   0.81890   0.21820
H          H       0.73980   0.47830   0.18990
H          H       0.18990   0.73980   0.47830
H          H       0.47830   0.18990   0.73980
H          H       0.26020   0.52170   0.81010
H          H       0.81010   0.26020   0.52170
H          H       0.52170   0.81010   0.26020
H          H       0.78580   0.48580   0.14810
H          H       0.14810   0.78580   0.48580
H          H       0.48580   0.14810   0.78580
H          H       0.21420   0.51420   0.85190
H          H       0.85190   0.21420   0.51420
H          H       0.51420   0.85190   0.21420
H          H       0.36740   0.75050   0.14550
H          H       0.14550   0.36740   0.75050
H          H       0.75050   0.14550   0.36740
H          H       0.63260   0.24950   0.85450
H          H       0.85450   0.63260   0.24950
H          H       0.24950   0.85450   0.63260
H          H       0.37200   0.73230   0.08740
H          H       0.08740   0.37200   0.73230
H          H       0.73230   0.08740   0.37200
H          H       0.62800   0.26770   0.91260
H          H       0.91260   0.62800   0.26770
H          H       0.26770   0.91260   0.62800
H          H       0.43210   0.78370   0.17900
H          H       0.17900   0.43210   0.78370
H          H       0.78370   0.17900   0.43210
H          H       0.56790   0.21630   0.82100
H          H       0.82100   0.56790   0.21630
H          H       0.21630   0.82100   0.56790
H          H       0.48520   0.78710   0.14620
H          H       0.14620   0.48520   0.78710
H          H       0.78710   0.14620   0.48520
H          H       0.51480   0.21290   0.85380
H          H       0.85380   0.51480   0.21290
H          H       0.21290   0.85380   0.51480
H          H       0.47800   0.74230   0.18950
H          H       0.18950   0.47800   0.74230
H          H       0.74230   0.18950   0.47800
H          H       0.52200   0.25770   0.81050
H          H       0.81050   0.52200   0.25770
H          H       0.25770   0.81050   0.52200
N          N       0.72840   0.43900   0.12240
N          N       0.12240   0.72840   0.43900
N          N       0.43900   0.12240   0.72840
N          N       0.27160   0.56100   0.87760
N          N       0.87760   0.27160   0.56100
N          N       0.56100   0.87760   0.27160
N          N       0.43970   0.72880   0.12310
N          N       0.12310   0.43970   0.72880
N          N       0.72880   0.12310   0.43970
N          N       0.56030   0.27120   0.87690
N          N       0.87690   0.56030   0.27120
N          N       0.27120   0.87690   0.56030
Ni         Ni      0.50000   0.50000   1.00000
Ni         Ni      1.00000   0.50000   0.50000
Ni         Ni      0.50000   1.00000   0.50000
Ni         Ni      0.61196   0.51042   0.03095
Ni         Ni      0.03095   0.61196   0.51042
Ni         Ni      0.51042   0.03095   0.61196
Ni         Ni      0.38804   0.48958   0.96905
Ni         Ni      0.96905   0.38804   0.48958
Ni         Ni      0.48958   0.96905   0.38804
Ni         Ni      0.51042   0.61196   0.03092
Ni         Ni      0.03092   0.51042   0.61196
Ni         Ni      0.61196   0.03092   0.51042
Ni         Ni      0.48958   0.38804   0.96908
Ni         Ni      0.96908   0.48958   0.38804
Ni         Ni      0.38804   0.96908   0.48958
O          O       0.55467   0.55478   0.99831
O          O       0.99831   0.55467   0.55478
O          O       0.55478   0.99831   0.55467
O          O       0.44533   0.44522   0.00169
O          O       0.00169   0.44533   0.44522
O          O       0.44522   0.00169   0.44533
O          O       0.38071   0.53182   0.03638
O          O       0.03638   0.38071   0.53182
O          O       0.53182   0.03638   0.38071
O          O       0.61929   0.46818   0.96362
O          O       0.96362   0.61929   0.46818
O          O       0.46818   0.96362   0.61929
O          O       0.46340   0.54658   0.05725
O          O       0.05725   0.46340   0.54658
O          O       0.54658   0.05725   0.46340
O          O       0.53660   0.45342   0.94275
O          O       0.94275   0.53660   0.45342
O          O       0.45342   0.94275   0.53660
O          O       0.67221   0.55688   0.00131
O          O       0.00131   0.67221   0.55688
O          O       0.55688   0.00131   0.67221
O          O       0.32779   0.44312   0.99869
O          O       0.99869   0.32779   0.44312
O          O       0.44312   0.99869   0.32779
O          O       0.66675   0.45794   0.06230
O          O       0.06230   0.66675   0.45794
O          O       0.45794   0.06230   0.66675
O          O       0.33325   0.54206   0.93770
O          O       0.93770   0.33325   0.54206
O          O       0.54206   0.93770   0.33325
O          O       0.45808   0.66679   0.06248
O          O       0.06248   0.45808   0.66679
O          O       0.66679   0.06248   0.45808
O          O       0.54192   0.33321   0.93752
O          O       0.93752   0.54192   0.33321
O          O       0.33321   0.93752   0.54192
O          O       0.55666   0.67218   0.00144
O          O       0.00144   0.55666   0.67218
O          O       0.67218   0.00144   0.55666
O          O       0.44334   0.32782   0.99856
O          O       0.99856   0.44334   0.32782
O          O       0.32782   0.99856   0.44334
O          O       0.03634   0.53165   0.38071
O          O       0.38071   0.03634   0.53165
O          O       0.53165   0.38071   0.03634
O          O       0.96366   0.46835   0.61929
O          O       0.61929   0.96366   0.46835
O          O       0.46835   0.61929   0.96366
O          O       0.05724   0.54666   0.46345
O          O       0.46345   0.05724   0.54666
O          O       0.54666   0.46345   0.05724
O          O       0.94276   0.45334   0.53655
O          O       0.53655   0.94276   0.45334
O          O       0.45334   0.53655   0.94276
O          O       0.54815   0.09869   0.61165
O          O       0.61165   0.54815   0.09869
O          O       0.09869   0.61165   0.54815
O          O       0.45185   0.90131   0.38835
O          O       0.38835   0.45185   0.90131
O          O       0.90131   0.38835   0.45185
O          O       0.61181   0.09877   0.54839
O          O       0.54839   0.61181   0.09877
O          O       0.09877   0.54839   0.61181
O          O       0.38819   0.90123   0.45161
O          O       0.45161   0.38819   0.90123
O          O       0.90123   0.45161   0.38819
