data_crystal

_cell_length_a    26.89600
_cell_length_b    26.89600
_cell_length_c    26.89600
_cell_angle_alpha 90.00000
_cell_angle_beta  90.00000
_cell_angle_gamma 90.00000

_space_group_name_Hall 'P 1'
_space_group_name_H-M_alt 'P 1'

loop_
_symmetry_equiv_pos_as_xyz
 'x,y,z'

loop_
_atom_site_label
_atom_site_type_symbol
_atom_site_fract_x
_atom_site_fract_y
_atom_site_fract_z
Zr         Zr      0.09204   0.00000   0.00000
Zr         Zr      0.90796   0.00000   0.00000
Zr         Zr      0.00000   0.09204   0.00000
Zr         Zr      0.00000   0.90796   0.00000
Zr         Zr      0.00000   0.00000   0.09204
Zr         Zr      0.00000   0.00000   0.90796
Zr         Zr      0.09204   0.50000   0.50000
Zr         Zr      0.90796   0.50000   0.50000
Zr         Zr      0.00000   0.59204   0.50000
Zr         Zr      0.00000   0.40796   0.50000
Zr         Zr      0.00000   0.50000   0.59204
Zr         Zr      0.00000   0.50000   0.40796
Zr         Zr      0.59204   0.00000   0.50000
Zr         Zr      0.40796   0.00000   0.50000
Zr         Zr      0.50000   0.09204   0.50000
Zr         Zr      0.50000   0.90796   0.50000
Zr         Zr      0.50000   0.00000   0.59204
Zr         Zr      0.50000   0.00000   0.40796
Zr         Zr      0.59204   0.50000   0.00000
Zr         Zr      0.40796   0.50000   0.00000
Zr         Zr      0.50000   0.59204   0.00000
Zr         Zr      0.50000   0.40796   0.00000
Zr         Zr      0.50000   0.50000   0.09204
Zr         Zr      0.50000   0.50000   0.90796
O          O       0.04540   0.04540   0.04540
O          O       0.95460   0.95460   0.04540
O          O       0.95460   0.04540   0.95460
O          O       0.04540   0.95460   0.95460
O          O       0.04540   0.04540   0.95460
O          O       0.95460   0.95460   0.95460
O          O       0.04540   0.95460   0.04540
O          O       0.95460   0.04540   0.04540
O          O       0.04540   0.54540   0.54540
O          O       0.95460   0.45460   0.54540
O          O       0.95460   0.54540   0.45460
O          O       0.04540   0.45460   0.45460
O          O       0.04540   0.54540   0.45460
O          O       0.95460   0.45460   0.45460
O          O       0.04540   0.45460   0.54540
O          O       0.95460   0.54540   0.54540
O          O       0.54540   0.04540   0.54540
O          O       0.45460   0.95460   0.54540
O          O       0.45460   0.04540   0.45460
O          O       0.54540   0.95460   0.45460
O          O       0.54540   0.04540   0.45460
O          O       0.45460   0.95460   0.45460
O          O       0.54540   0.95460   0.54540
O          O       0.45460   0.04540   0.54540
O          O       0.54540   0.54540   0.04540
O          O       0.45460   0.45460   0.04540
O          O       0.45460   0.54540   0.95460
O          O       0.54540   0.45460   0.95460
O          O       0.54540   0.54540   0.95460
O          O       0.45460   0.45460   0.95460
O          O       0.54540   0.45460   0.04540
O          O       0.45460   0.54540   0.04540
O          O       0.13260   0.00000   0.07190
O          O       0.86740   0.00000   0.07190
O          O       0.86740   0.00000   0.92810
O          O       0.13260   0.00000   0.92810
O          O       0.07190   0.13260   0.00000
O          O       0.07190   0.86740   0.00000
O          O       0.92810   0.86740   0.00000
O          O       0.92810   0.13260   0.00000
O          O       0.00000   0.07190   0.13260
O          O       0.00000   0.07190   0.86740
O          O       0.00000   0.92810   0.86740
O          O       0.00000   0.92810   0.13260
O          O       0.00000   0.13260   0.92810
O          O       0.00000   0.86740   0.92810
O          O       0.00000   0.86740   0.07190
O          O       0.00000   0.13260   0.07190
O          O       0.13260   0.07190   0.00000
O          O       0.86740   0.07190   0.00000
O          O       0.86740   0.92810   0.00000
O          O       0.13260   0.92810   0.00000
O          O       0.07190   0.00000   0.86740
O          O       0.07190   0.00000   0.13260
O          O       0.92810   0.00000   0.13260
O          O       0.92810   0.00000   0.86740
O          O       0.13260   0.50000   0.57190
O          O       0.86740   0.50000   0.57190
O          O       0.86740   0.50000   0.42810
O          O       0.13260   0.50000   0.42810
O          O       0.07190   0.63260   0.50000
O          O       0.07190   0.36740   0.50000
O          O       0.92810   0.36740   0.50000
O          O       0.92810   0.63260   0.50000
O          O       0.00000   0.57190   0.63260
O          O       0.00000   0.57190   0.36740
O          O       0.00000   0.42810   0.36740
O          O       0.00000   0.42810   0.63260
O          O       0.00000   0.63260   0.42810
O          O       0.00000   0.36740   0.42810
O          O       0.00000   0.36740   0.57190
O          O       0.00000   0.63260   0.57190
O          O       0.13260   0.57190   0.50000
O          O       0.86740   0.57190   0.50000
O          O       0.86740   0.42810   0.50000
O          O       0.13260   0.42810   0.50000
O          O       0.07190   0.50000   0.36740
O          O       0.07190   0.50000   0.63260
O          O       0.92810   0.50000   0.63260
O          O       0.92810   0.50000   0.36740
O          O       0.63260   0.00000   0.57190
O          O       0.36740   0.00000   0.57190
O          O       0.36740   0.00000   0.42810
O          O       0.63260   0.00000   0.42810
O          O       0.57190   0.13260   0.50000
O          O       0.57190   0.86740   0.50000
O          O       0.42810   0.86740   0.50000
O          O       0.42810   0.13260   0.50000
O          O       0.50000   0.07190   0.63260
O          O       0.50000   0.07190   0.36740
O          O       0.50000   0.92810   0.36740
O          O       0.50000   0.92810   0.63260
O          O       0.50000   0.13260   0.42810
O          O       0.50000   0.86740   0.42810
O          O       0.50000   0.86740   0.57190
O          O       0.50000   0.13260   0.57190
O          O       0.63260   0.07190   0.50000
O          O       0.36740   0.07190   0.50000
O          O       0.36740   0.92810   0.50000
O          O       0.63260   0.92810   0.50000
O          O       0.57190   0.00000   0.36740
O          O       0.57190   0.00000   0.63260
O          O       0.42810   0.00000   0.63260
O          O       0.42810   0.00000   0.36740
O          O       0.63260   0.50000   0.07190
O          O       0.36740   0.50000   0.07190
O          O       0.36740   0.50000   0.92810
O          O       0.63260   0.50000   0.92810
O          O       0.57190   0.63260   0.00000
O          O       0.57190   0.36740   0.00000
O          O       0.42810   0.36740   0.00000
O          O       0.42810   0.63260   0.00000
O          O       0.50000   0.57190   0.13260
O          O       0.50000   0.57190   0.86740
O          O       0.50000   0.42810   0.86740
O          O       0.50000   0.42810   0.13260
O          O       0.50000   0.63260   0.92810
O          O       0.50000   0.36740   0.92810
O          O       0.50000   0.36740   0.07190
O          O       0.50000   0.63260   0.07190
O          O       0.63260   0.57190   0.00000
O          O       0.36740   0.57190   0.00000
O          O       0.36740   0.42810   0.00000
O          O       0.63260   0.42810   0.00000
O          O       0.57190   0.50000   0.86740
O          O       0.57190   0.50000   0.13260
O          O       0.42810   0.50000   0.13260
O          O       0.42810   0.50000   0.86740
C          C       0.11720   0.00000   0.11720
C          C       0.88280   0.00000   0.11720
C          C       0.88280   0.00000   0.88280
C          C       0.11720   0.00000   0.88280
C          C       0.11720   0.11720   0.00000
C          C       0.11720   0.88280   0.00000
C          C       0.88280   0.88280   0.00000
C          C       0.88280   0.11720   0.00000
C          C       0.00000   0.11720   0.11720
C          C       0.00000   0.11720   0.88280
C          C       0.00000   0.88280   0.88280
C          C       0.00000   0.88280   0.11720
C          C       0.11720   0.50000   0.61720
C          C       0.88280   0.50000   0.61720
C          C       0.88280   0.50000   0.38280
C          C       0.11720   0.50000   0.38280
C          C       0.11720   0.61720   0.50000
C          C       0.11720   0.38280   0.50000
C          C       0.88280   0.38280   0.50000
C          C       0.88280   0.61720   0.50000
C          C       0.00000   0.61720   0.61720
C          C       0.00000   0.61720   0.38280
C          C       0.00000   0.38280   0.38280
C          C       0.00000   0.38280   0.61720
C          C       0.61720   0.00000   0.61720
C          C       0.38280   0.00000   0.61720
C          C       0.38280   0.00000   0.38280
C          C       0.61720   0.00000   0.38280
C          C       0.61720   0.11720   0.50000
C          C       0.61720   0.88280   0.50000
C          C       0.38280   0.88280   0.50000
C          C       0.38280   0.11720   0.50000
C          C       0.50000   0.11720   0.61720
C          C       0.50000   0.11720   0.38280
C          C       0.50000   0.88280   0.38280
C          C       0.50000   0.88280   0.61720
C          C       0.61720   0.50000   0.11720
C          C       0.38280   0.50000   0.11720
C          C       0.38280   0.50000   0.88280
C          C       0.61720   0.50000   0.88280
C          C       0.61720   0.61720   0.00000
C          C       0.61720   0.38280   0.00000
C          C       0.38280   0.38280   0.00000
C          C       0.38280   0.61720   0.00000
C          C       0.50000   0.61720   0.11720
C          C       0.50000   0.61720   0.88280
C          C       0.50000   0.38280   0.88280
C          C       0.50000   0.38280   0.11720
C          C       0.15650   0.00000   0.15650
C          C       0.84350   0.00000   0.15650
C          C       0.84350   0.00000   0.84350
C          C       0.15650   0.00000   0.84350
C          C       0.15650   0.15650   0.00000
C          C       0.15650   0.84350   0.00000
C          C       0.84350   0.84350   0.00000
C          C       0.84350   0.15650   0.00000
C          C       0.00000   0.15650   0.15650
C          C       0.00000   0.15650   0.84350
C          C       0.00000   0.84350   0.84350
C          C       0.00000   0.84350   0.15650
C          C       0.15650   0.50000   0.65650
C          C       0.84350   0.50000   0.65650
C          C       0.84350   0.50000   0.34350
C          C       0.15650   0.50000   0.34350
C          C       0.15650   0.65650   0.50000
C          C       0.15650   0.34350   0.50000
C          C       0.84350   0.34350   0.50000
C          C       0.84350   0.65650   0.50000
C          C       0.00000   0.65650   0.65650
C          C       0.00000   0.65650   0.34350
C          C       0.00000   0.34350   0.34350
C          C       0.00000   0.34350   0.65650
C          C       0.65650   0.00000   0.65650
C          C       0.34350   0.00000   0.65650
C          C       0.34350   0.00000   0.34350
C          C       0.65650   0.00000   0.34350
C          C       0.65650   0.15650   0.50000
C          C       0.65650   0.84350   0.50000
C          C       0.34350   0.84350   0.50000
C          C       0.34350   0.15650   0.50000
C          C       0.50000   0.15650   0.65650
C          C       0.50000   0.15650   0.34350
C          C       0.50000   0.84350   0.34350
C          C       0.50000   0.84350   0.65650
C          C       0.65650   0.50000   0.15650
C          C       0.34350   0.50000   0.15650
C          C       0.34350   0.50000   0.84350
C          C       0.65650   0.50000   0.84350
C          C       0.65650   0.65650   0.00000
C          C       0.65650   0.34350   0.00000
C          C       0.34350   0.34350   0.00000
C          C       0.34350   0.65650   0.00000
C          C       0.50000   0.65650   0.15650
C          C       0.50000   0.65650   0.84350
C          C       0.50000   0.34350   0.84350
C          C       0.50000   0.34350   0.15650
C          C       0.20580   0.00000   0.14470
C          C       0.79420   0.00000   0.14470
C          C       0.79420   0.00000   0.85530
C          C       0.20580   0.00000   0.85530
C          C       0.14470   0.20580   0.00000
C          C       0.14470   0.79420   0.00000
C          C       0.85530   0.79420   0.00000
C          C       0.85530   0.20580   0.00000
C          C       0.00000   0.14470   0.20580
C          C       0.00000   0.14470   0.79420
C          C       0.00000   0.85530   0.79420
C          C       0.00000   0.85530   0.20580
C          C       0.00000   0.20580   0.85530
C          C       0.00000   0.79420   0.85530
C          C       0.00000   0.79420   0.14470
C          C       0.00000   0.20580   0.14470
C          C       0.20580   0.14470   0.00000
C          C       0.79420   0.14470   0.00000
C          C       0.79420   0.85530   0.00000
C          C       0.20580   0.85530   0.00000
C          C       0.14470   0.00000   0.79420
C          C       0.14470   0.00000   0.20580
C          C       0.85530   0.00000   0.20580
C          C       0.85530   0.00000   0.79420
C          C       0.20580   0.50000   0.64470
C          C       0.79420   0.50000   0.64470
C          C       0.79420   0.50000   0.35530
C          C       0.20580   0.50000   0.35530
C          C       0.14470   0.70580   0.50000
C          C       0.14470   0.29420   0.50000
C          C       0.85530   0.29420   0.50000
C          C       0.85530   0.70580   0.50000
C          C       0.00000   0.64470   0.70580
C          C       0.00000   0.64470   0.29420
C          C       0.00000   0.35530   0.29420
C          C       0.00000   0.35530   0.70580
C          C       0.00000   0.70580   0.35530
C          C       0.00000   0.29420   0.35530
C          C       0.00000   0.29420   0.64470
C          C       0.00000   0.70580   0.64470
C          C       0.20580   0.64470   0.50000
C          C       0.79420   0.64470   0.50000
C          C       0.79420   0.35530   0.50000
C          C       0.20580   0.35530   0.50000
C          C       0.14470   0.50000   0.29420
C          C       0.14470   0.50000   0.70580
C          C       0.85530   0.50000   0.70580
C          C       0.85530   0.50000   0.29420
C          C       0.70580   0.00000   0.64470
C          C       0.29420   0.00000   0.64470
C          C       0.29420   0.00000   0.35530
C          C       0.70580   0.00000   0.35530
C          C       0.64470   0.20580   0.50000
C          C       0.64470   0.79420   0.50000
C          C       0.35530   0.79420   0.50000
C          C       0.35530   0.20580   0.50000
C          C       0.50000   0.14470   0.70580
C          C       0.50000   0.14470   0.29420
C          C       0.50000   0.85530   0.29420
C          C       0.50000   0.85530   0.70580
C          C       0.50000   0.20580   0.35530
C          C       0.50000   0.79420   0.35530
C          C       0.50000   0.79420   0.64470
C          C       0.50000   0.20580   0.64470
C          C       0.70580   0.14470   0.50000
C          C       0.29420   0.14470   0.50000
C          C       0.29420   0.85530   0.50000
C          C       0.70580   0.85530   0.50000
C          C       0.64470   0.00000   0.29420
C          C       0.64470   0.00000   0.70580
C          C       0.35530   0.00000   0.70580
C          C       0.35530   0.00000   0.29420
C          C       0.70580   0.50000   0.14470
C          C       0.29420   0.50000   0.14470
C          C       0.29420   0.50000   0.85530
C          C       0.70580   0.50000   0.85530
C          C       0.64470   0.70580   0.00000
C          C       0.64470   0.29420   0.00000
C          C       0.35530   0.29420   0.00000
C          C       0.35530   0.70580   0.00000
C          C       0.50000   0.64470   0.20580
C          C       0.50000   0.64470   0.79420
C          C       0.50000   0.35530   0.79420
C          C       0.50000   0.35530   0.20580
C          C       0.50000   0.70580   0.85530
C          C       0.50000   0.29420   0.85530
C          C       0.50000   0.29420   0.14470
C          C       0.50000   0.70580   0.14470
C          C       0.70580   0.64470   0.00000
C          C       0.29420   0.64470   0.00000
C          C       0.29420   0.35530   0.00000
C          C       0.70580   0.35530   0.00000
C          C       0.64470   0.50000   0.79420
C          C       0.64470   0.50000   0.20580
C          C       0.35530   0.50000   0.20580
C          C       0.35530   0.50000   0.79420
H          H       0.21490   0.00000   0.11140
H          H       0.78510   0.00000   0.11140
H          H       0.78510   0.00000   0.88860
H          H       0.21490   0.00000   0.88860
H          H       0.11140   0.21490   0.00000
H          H       0.11140   0.78510   0.00000
H          H       0.88860   0.78510   0.00000
H          H       0.88860   0.21490   0.00000
H          H       0.00000   0.11140   0.21490
H          H       0.00000   0.11140   0.78510
H          H       0.00000   0.88860   0.78510
H          H       0.00000   0.88860   0.21490
H          H       0.00000   0.21490   0.88860
H          H       0.00000   0.78510   0.88860
H          H       0.00000   0.78510   0.11140
H          H       0.00000   0.21490   0.11140
H          H       0.21490   0.11140   0.00000
H          H       0.78510   0.11140   0.00000
H          H       0.78510   0.88860   0.00000
H          H       0.21490   0.88860   0.00000
H          H       0.11140   0.00000   0.78510
H          H       0.11140   0.00000   0.21490
H          H       0.88860   0.00000   0.21490
H          H       0.88860   0.00000   0.78510
H          H       0.21490   0.50000   0.61140
H          H       0.78510   0.50000   0.61140
H          H       0.78510   0.50000   0.38860
H          H       0.21490   0.50000   0.38860
H          H       0.11140   0.71490   0.50000
H          H       0.11140   0.28510   0.50000
H          H       0.88860   0.28510   0.50000
H          H       0.88860   0.71490   0.50000
H          H       0.00000   0.61140   0.71490
H          H       0.00000   0.61140   0.28510
H          H       0.00000   0.38860   0.28510
H          H       0.00000   0.38860   0.71490
H          H       0.00000   0.71490   0.38860
H          H       0.00000   0.28510   0.38860
H          H       0.00000   0.28510   0.61140
H          H       0.00000   0.71490   0.61140
H          H       0.21490   0.61140   0.50000
H          H       0.78510   0.61140   0.50000
H          H       0.78510   0.38860   0.50000
H          H       0.21490   0.38860   0.50000
H          H       0.11140   0.50000   0.28510
H          H       0.11140   0.50000   0.71490
H          H       0.88860   0.50000   0.71490
H          H       0.88860   0.50000   0.28510
H          H       0.71490   0.00000   0.61140
H          H       0.28510   0.00000   0.61140
H          H       0.28510   0.00000   0.38860
H          H       0.71490   0.00000   0.38860
H          H       0.61140   0.21490   0.50000
H          H       0.61140   0.78510   0.50000
H          H       0.38860   0.78510   0.50000
H          H       0.38860   0.21490   0.50000
H          H       0.50000   0.11140   0.71490
H          H       0.50000   0.11140   0.28510
H          H       0.50000   0.88860   0.28510
H          H       0.50000   0.88860   0.71490
H          H       0.50000   0.21490   0.38860
H          H       0.50000   0.78510   0.38860
H          H       0.50000   0.78510   0.61140
H          H       0.50000   0.21490   0.61140
H          H       0.71490   0.11140   0.50000
H          H       0.28510   0.11140   0.50000
H          H       0.28510   0.88860   0.50000
H          H       0.71490   0.88860   0.50000
H          H       0.61140   0.00000   0.28510
H          H       0.61140   0.00000   0.71490
H          H       0.38860   0.00000   0.71490
H          H       0.38860   0.00000   0.28510
H          H       0.71490   0.50000   0.11140
H          H       0.28510   0.50000   0.11140
H          H       0.28510   0.50000   0.88860
H          H       0.71490   0.50000   0.88860
H          H       0.61140   0.71490   0.00000
H          H       0.61140   0.28510   0.00000
H          H       0.38860   0.28510   0.00000
H          H       0.38860   0.71490   0.00000
H          H       0.50000   0.61140   0.21490
H          H       0.50000   0.61140   0.78510
H          H       0.50000   0.38860   0.78510
H          H       0.50000   0.38860   0.21490
H          H       0.50000   0.71490   0.88860
H          H       0.50000   0.28510   0.88860
H          H       0.50000   0.28510   0.11140
H          H       0.50000   0.71490   0.11140
H          H       0.71490   0.61140   0.00000
H          H       0.28510   0.61140   0.00000
H          H       0.28510   0.38860   0.00000
H          H       0.71490   0.38860   0.00000
H          H       0.61140   0.50000   0.78510
H          H       0.61140   0.50000   0.21490
H          H       0.38860   0.50000   0.21490
H          H       0.38860   0.50000   0.78510
C          C       0.24200   0.00000   0.17950
C          C       0.75800   0.00000   0.17950
C          C       0.75800   0.00000   0.82050
C          C       0.24200   0.00000   0.82050
C          C       0.17950   0.24200   0.00000
C          C       0.17950   0.75800   0.00000
C          C       0.82050   0.75800   0.00000
C          C       0.82050   0.24200   0.00000
C          C       0.00000   0.17950   0.24200
C          C       0.00000   0.17950   0.75800
C          C       0.00000   0.82050   0.75800
C          C       0.00000   0.82050   0.24200
C          C       0.00000   0.24200   0.82050
C          C       0.00000   0.75800   0.82050
C          C       0.00000   0.75800   0.17950
C          C       0.00000   0.24200   0.17950
C          C       0.24200   0.17950   0.00000
C          C       0.75800   0.17950   0.00000
C          C       0.75800   0.82050   0.00000
C          C       0.24200   0.82050   0.00000
C          C       0.17950   0.00000   0.75800
C          C       0.17950   0.00000   0.24200
C          C       0.82050   0.00000   0.24200
C          C       0.82050   0.00000   0.75800
C          C       0.24200   0.50000   0.67950
C          C       0.75800   0.50000   0.67950
C          C       0.75800   0.50000   0.32050
C          C       0.24200   0.50000   0.32050
C          C       0.17950   0.74200   0.50000
C          C       0.17950   0.25800   0.50000
C          C       0.82050   0.25800   0.50000
C          C       0.82050   0.74200   0.50000
C          C       0.00000   0.67950   0.74200
C          C       0.00000   0.67950   0.25800
C          C       0.00000   0.32050   0.25800
C          C       0.00000   0.32050   0.74200
C          C       0.00000   0.74200   0.32050
C          C       0.00000   0.25800   0.32050
C          C       0.00000   0.25800   0.67950
C          C       0.00000   0.74200   0.67950
C          C       0.24200   0.67950   0.50000
C          C       0.75800   0.67950   0.50000
C          C       0.75800   0.32050   0.50000
C          C       0.24200   0.32050   0.50000
C          C       0.17950   0.50000   0.25800
C          C       0.17950   0.50000   0.74200
C          C       0.82050   0.50000   0.74200
C          C       0.82050   0.50000   0.25800
C          C       0.74200   0.00000   0.67950
C          C       0.25800   0.00000   0.67950
C          C       0.25800   0.00000   0.32050
C          C       0.74200   0.00000   0.32050
C          C       0.67950   0.24200   0.50000
C          C       0.67950   0.75800   0.50000
C          C       0.32050   0.75800   0.50000
C          C       0.32050   0.24200   0.50000
C          C       0.50000   0.17950   0.74200
C          C       0.50000   0.17950   0.25800
C          C       0.50000   0.82050   0.25800
C          C       0.50000   0.82050   0.74200
C          C       0.50000   0.24200   0.32050
C          C       0.50000   0.75800   0.32050
C          C       0.50000   0.75800   0.67950
C          C       0.50000   0.24200   0.67950
C          C       0.74200   0.17950   0.50000
C          C       0.25800   0.17950   0.50000
C          C       0.25800   0.82050   0.50000
C          C       0.74200   0.82050   0.50000
C          C       0.67950   0.00000   0.25800
C          C       0.67950   0.00000   0.74200
C          C       0.32050   0.00000   0.74200
C          C       0.32050   0.00000   0.25800
C          C       0.74200   0.50000   0.17950
C          C       0.25800   0.50000   0.17950
C          C       0.25800   0.50000   0.82050
C          C       0.74200   0.50000   0.82050
C          C       0.67950   0.74200   0.00000
C          C       0.67950   0.25800   0.00000
C          C       0.32050   0.25800   0.00000
C          C       0.32050   0.74200   0.00000
C          C       0.50000   0.67950   0.24200
C          C       0.50000   0.67950   0.75800
C          C       0.50000   0.32050   0.75800
C          C       0.50000   0.32050   0.24200
C          C       0.50000   0.74200   0.82050
C          C       0.50000   0.25800   0.82050
C          C       0.50000   0.25800   0.17950
C          C       0.50000   0.74200   0.17950
C          C       0.74200   0.67950   0.00000
C          C       0.25800   0.67950   0.00000
C          C       0.25800   0.32050   0.00000
C          C       0.74200   0.32050   0.00000
C          C       0.67950   0.50000   0.75800
C          C       0.67950   0.50000   0.24200
C          C       0.32050   0.50000   0.24200
C          C       0.32050   0.50000   0.75800
H          H       0.27510   0.00000   0.16950
H          H       0.72490   0.00000   0.16950
H          H       0.72490   0.00000   0.83050
H          H       0.27510   0.00000   0.83050
H          H       0.16950   0.27510   0.00000
H          H       0.16950   0.72490   0.00000
H          H       0.83050   0.72490   0.00000
H          H       0.83050   0.27510   0.00000
H          H       0.00000   0.16950   0.27510
H          H       0.00000   0.16950   0.72490
H          H       0.00000   0.83050   0.72490
H          H       0.00000   0.83050   0.27510
H          H       0.00000   0.27510   0.83050
H          H       0.00000   0.72490   0.83050
H          H       0.00000   0.72490   0.16950
H          H       0.00000   0.27510   0.16950
H          H       0.27510   0.16950   0.00000
H          H       0.72490   0.16950   0.00000
H          H       0.72490   0.83050   0.00000
H          H       0.27510   0.83050   0.00000
H          H       0.16950   0.00000   0.72490
H          H       0.16950   0.00000   0.27510
H          H       0.83050   0.00000   0.27510
H          H       0.83050   0.00000   0.72490
H          H       0.27510   0.50000   0.66950
H          H       0.72490   0.50000   0.66950
H          H       0.72490   0.50000   0.33050
H          H       0.27510   0.50000   0.33050
H          H       0.16950   0.77510   0.50000
H          H       0.16950   0.22490   0.50000
H          H       0.83050   0.22490   0.50000
H          H       0.83050   0.77510   0.50000
H          H       0.00000   0.66950   0.77510
H          H       0.00000   0.66950   0.22490
H          H       0.00000   0.33050   0.22490
H          H       0.00000   0.33050   0.77510
H          H       0.00000   0.77510   0.33050
H          H       0.00000   0.22490   0.33050
H          H       0.00000   0.22490   0.66950
H          H       0.00000   0.77510   0.66950
H          H       0.27510   0.66950   0.50000
H          H       0.72490   0.66950   0.50000
H          H       0.72490   0.33050   0.50000
H          H       0.27510   0.33050   0.50000
H          H       0.16950   0.50000   0.22490
H          H       0.16950   0.50000   0.77510
H          H       0.83050   0.50000   0.77510
H          H       0.83050   0.50000   0.22490
H          H       0.77510   0.00000   0.66950
H          H       0.22490   0.00000   0.66950
H          H       0.22490   0.00000   0.33050
H          H       0.77510   0.00000   0.33050
H          H       0.66950   0.27510   0.50000
H          H       0.66950   0.72490   0.50000
H          H       0.33050   0.72490   0.50000
H          H       0.33050   0.27510   0.50000
H          H       0.50000   0.16950   0.77510
H          H       0.50000   0.16950   0.22490
H          H       0.50000   0.83050   0.22490
H          H       0.50000   0.83050   0.77510
H          H       0.50000   0.27510   0.33050
H          H       0.50000   0.72490   0.33050
H          H       0.50000   0.72490   0.66950
H          H       0.50000   0.27510   0.66950
H          H       0.77510   0.16950   0.50000
H          H       0.22490   0.16950   0.50000
H          H       0.22490   0.83050   0.50000
H          H       0.77510   0.83050   0.50000
H          H       0.66950   0.00000   0.22490
H          H       0.66950   0.00000   0.77510
H          H       0.33050   0.00000   0.77510
H          H       0.33050   0.00000   0.22490
H          H       0.77510   0.50000   0.16950
H          H       0.22490   0.50000   0.16950
H          H       0.22490   0.50000   0.83050
H          H       0.77510   0.50000   0.83050
H          H       0.66950   0.77510   0.00000
H          H       0.66950   0.22490   0.00000
H          H       0.33050   0.22490   0.00000
H          H       0.33050   0.77510   0.00000
H          H       0.50000   0.66950   0.27510
H          H       0.50000   0.66950   0.72490
H          H       0.50000   0.33050   0.72490
H          H       0.50000   0.33050   0.27510
H          H       0.50000   0.77510   0.83050
H          H       0.50000   0.22490   0.83050
H          H       0.50000   0.22490   0.16950
H          H       0.50000   0.77510   0.16950
H          H       0.77510   0.66950   0.00000
H          H       0.22490   0.66950   0.00000
H          H       0.22490   0.33050   0.00000
H          H       0.77510   0.33050   0.00000
H          H       0.66950   0.50000   0.72490
H          H       0.66950   0.50000   0.27510
H          H       0.33050   0.50000   0.27510
H          H       0.33050   0.50000   0.72490
C          C       0.23070   0.00000   0.23070
C          C       0.76930   0.00000   0.23070
C          C       0.76930   0.00000   0.76930
C          C       0.23070   0.00000   0.76930
C          C       0.23070   0.23070   0.00000
C          C       0.23070   0.76930   0.00000
C          C       0.76930   0.76930   0.00000
C          C       0.76930   0.23070   0.00000
C          C       0.00000   0.23070   0.23070
C          C       0.00000   0.23070   0.76930
C          C       0.00000   0.76930   0.76930
C          C       0.00000   0.76930   0.23070
C          C       0.23070   0.50000   0.73070
C          C       0.76930   0.50000   0.73070
C          C       0.76930   0.50000   0.26930
C          C       0.23070   0.50000   0.26930
C          C       0.23070   0.73070   0.50000
C          C       0.23070   0.26930   0.50000
C          C       0.76930   0.26930   0.50000
C          C       0.76930   0.73070   0.50000
C          C       0.00000   0.73070   0.73070
C          C       0.00000   0.73070   0.26930
C          C       0.00000   0.26930   0.26930
C          C       0.00000   0.26930   0.73070
C          C       0.73070   0.00000   0.73070
C          C       0.26930   0.00000   0.73070
C          C       0.26930   0.00000   0.26930
C          C       0.73070   0.00000   0.26930
C          C       0.73070   0.23070   0.50000
C          C       0.73070   0.76930   0.50000
C          C       0.26930   0.76930   0.50000
C          C       0.26930   0.23070   0.50000
C          C       0.50000   0.23070   0.73070
C          C       0.50000   0.23070   0.26930
C          C       0.50000   0.76930   0.26930
C          C       0.50000   0.76930   0.73070
C          C       0.73070   0.50000   0.23070
C          C       0.26930   0.50000   0.23070
C          C       0.26930   0.50000   0.76930
C          C       0.73070   0.50000   0.76930
C          C       0.73070   0.73070   0.00000
C          C       0.73070   0.26930   0.00000
C          C       0.26930   0.26930   0.00000
C          C       0.26930   0.73070   0.00000
C          C       0.50000   0.73070   0.23070
C          C       0.50000   0.73070   0.76930
C          C       0.50000   0.26930   0.76930
C          C       0.50000   0.26930   0.23070
