data_crystal

_cell_length_a    9.69630
_cell_length_b    9.69630
_cell_length_c    20.12600
_cell_angle_alpha 90.00000
_cell_angle_beta  90.00000
_cell_angle_gamma 120.00000

_space_group_name_Hall 'P 1'
_space_group_name_H-M_alt 'P 1'

loop_
_symmetry_equiv_pos_as_xyz
 'x,y,z'

loop_
_atom_site_label
_atom_site_type_symbol
_atom_site_fract_x
_atom_site_fract_y
_atom_site_fract_z
Zn         Zn      0.05813   0.56779   0.58324
Zn         Zn      0.50966   0.94187   0.24991
Zn         Zn      0.43221   0.49034   0.91657
Zn         Zn      0.49034   0.43221   0.41676
Zn         Zn      0.56779   0.05813   0.75009
Zn         Zn      0.94187   0.50966   0.08343
H          H       0.99000   0.66000   0.44400
H          H       0.67000   0.01000   0.11067
H          H       0.34000   0.33000   0.77733
H          H       0.33000   0.34000   0.55600
H          H       0.66000   0.99000   0.88933
H          H       0.01000   0.67000   0.22267
H          H       0.86000   0.66100   0.40650
H          H       0.80100   0.14000   0.07317
H          H       0.33900   0.19900   0.73983
H          H       0.19900   0.33900   0.59350
H          H       0.66100   0.86000   0.92683
H          H       0.14000   0.80100   0.26017
H          H       0.90200   0.06470   0.78880
H          H       0.16270   0.09800   0.45547
H          H       0.93530   0.83730   0.12213
H          H       0.83730   0.93530   0.21120
H          H       0.06470   0.90200   0.54453
H          H       0.09800   0.16270   0.87787
H          H       0.01200   0.08500   0.74420
H          H       0.07300   0.98800   0.41087
H          H       0.91500   0.92700   0.07753
H          H       0.92700   0.91500   0.25580
H          H       0.08500   0.01200   0.58913
H          H       0.98800   0.07300   0.92247
H          H       0.72070   0.47110   0.68560
H          H       0.75040   0.27930   0.35227
H          H       0.52890   0.24960   0.01893
H          H       0.24960   0.52890   0.31440
H          H       0.47110   0.72070   0.64773
H          H       0.27930   0.75040   0.98107
H          H       0.59150   0.29560   0.66250
H          H       0.70410   0.40850   0.32917
H          H       0.70440   0.29590   0.99583
H          H       0.29590   0.70440   0.33750
H          H       0.29560   0.59150   0.67083
H          H       0.40850   0.70410   0.00417
C          C       0.80310   0.56340   0.49252
C          C       0.76030   0.19690   0.15919
C          C       0.43660   0.23970   0.82585
C          C       0.23970   0.43660   0.50748
C          C       0.56340   0.80310   0.84081
C          C       0.19690   0.76030   0.17415
C          C       0.71190   0.44320   0.58431
C          C       0.73130   0.28810   0.25098
C          C       0.55680   0.26870   0.91764
C          C       0.26870   0.55680   0.41569
C          C       0.44320   0.71190   0.74902
C          C       0.28810   0.73130   0.08236
C          C       0.70120   0.38400   0.65457
C          C       0.68280   0.29880   0.32124
C          C       0.61600   0.31720   0.98790
C          C       0.31720   0.61600   0.34543
C          C       0.38400   0.70120   0.67876
C          C       0.29880   0.68280   0.01210
C          C       0.81540   0.32710   0.67038
C          C       0.51170   0.18460   0.33705
C          C       0.67290   0.48830   0.00371
C          C       0.48830   0.67290   0.32962
C          C       0.32710   0.81540   0.66295
C          C       0.18460   0.51170   0.99629
C          C       0.91860   0.19780   0.71198
C          C       0.27920   0.08140   0.37865
C          C       0.80220   0.72080   0.04531
C          C       0.72080   0.80220   0.28802
C          C       0.19780   0.91860   0.62135
C          C       0.08140   0.27920   0.95469
N          N       0.58620   0.40710   0.54913
N          N       0.82090   0.41380   0.21580
N          N       0.59290   0.17910   0.88246
N          N       0.17910   0.59290   0.45087
N          N       0.40710   0.58620   0.78420
N          N       0.41380   0.82090   0.11754
N          N       0.85190   0.54130   0.55272
N          N       0.68940   0.14810   0.21939
N          N       0.45870   0.31060   0.88605
N          N       0.31060   0.45870   0.44728
N          N       0.54130   0.85190   0.78061
N          N       0.14810   0.68940   0.11395
N          N       0.90660   0.66220   0.44506
N          N       0.75560   0.09340   0.11173
N          N       0.33780   0.24440   0.77839
N          N       0.24440   0.33780   0.55494
N          N       0.66220   0.90660   0.88827
N          N       0.09340   0.75560   0.22161
N          N       0.96280   0.39310   0.64919
N          N       0.43030   0.03720   0.31586
N          N       0.60690   0.56970   0.98252
N          N       0.56970   0.60690   0.35081
N          N       0.39310   0.96280   0.68414
N          N       0.03720   0.43030   0.01748
N          N       0.03230   0.30950   0.67545
N          N       0.27720   0.96770   0.34212
N          N       0.69050   0.72280   0.00878
N          N       0.72280   0.69050   0.32455
N          N       0.30950   0.03230   0.65788
N          N       0.96770   0.27720   0.99122
N          N       0.93460   0.08440   0.74648
N          N       0.14980   0.06540   0.41315
N          N       0.91560   0.85020   0.07981
N          N       0.85020   0.91560   0.25352
N          N       0.08440   0.93460   0.58685
N          N       0.06540   0.14980   0.92019
N          N       0.64590   0.48570   0.48855
N          N       0.83980   0.35410   0.15522
N          N       0.51430   0.16020   0.82188
N          N       0.16020   0.51430   0.51145
N          N       0.48570   0.64590   0.84478
N          N       0.35410   0.83980   0.17812
N          N       0.77990   0.20080   0.71056
N          N       0.42090   0.22010   0.37723
N          N       0.79920   0.57910   0.04389
N          N       0.57910   0.79920   0.28944
N          N       0.20080   0.77990   0.62277
N          N       0.22010   0.42090   0.95611
