data_crystal

_cell_length_a    18.62730
_cell_length_b    18.62730
_cell_length_c    18.62730
_cell_angle_alpha 60.00000
_cell_angle_beta  60.00000
_cell_angle_gamma 60.00000

_space_group_name_Hall 'P 1'
_space_group_name_H-M_alt 'P 1'

loop_
_symmetry_equiv_pos_as_xyz
 'x,y,z'

loop_
_atom_site_label
_atom_site_type_symbol
_atom_site_fract_x
_atom_site_fract_y
_atom_site_fract_z
Cr         Cr      0.07057   0.50000   0.92943
Cr         Cr      0.50000   0.07057   0.50000
Cr         Cr      0.92943   0.50000   0.07057
Cr         Cr      0.50000   0.92943   0.50000
Cr         Cr      0.07057   0.92943   0.50000
Cr         Cr      0.50000   0.50000   0.92943
Cr         Cr      0.92943   0.07057   0.50000
Cr         Cr      0.50000   0.50000   0.07057
Cr         Cr      0.07057   0.50000   0.50000
Cr         Cr      0.50000   0.92943   0.07057
Cr         Cr      0.92943   0.50000   0.50000
Cr         Cr      0.50000   0.07057   0.92943
H          H       0.22800   0.22800   0.01160
H          H       0.22800   0.22800   0.53240
H          H       0.01160   0.53240   0.22800
H          H       0.53240   0.01160   0.22800
H          H       0.22800   0.01160   0.53240
H          H       0.22800   0.53240   0.01160
H          H       0.01160   0.22800   0.22800
H          H       0.53240   0.22800   0.22800
H          H       0.22800   0.53240   0.22800
H          H       0.22800   0.01160   0.22800
H          H       0.01160   0.22800   0.53240
H          H       0.53240   0.22800   0.01160
H          H       0.77200   0.77200   0.98840
H          H       0.77200   0.77200   0.46760
H          H       0.46760   0.98840   0.77200
H          H       0.98840   0.46760   0.77200
H          H       0.98840   0.77200   0.46760
H          H       0.46760   0.77200   0.98840
H          H       0.77200   0.98840   0.77200
H          H       0.77200   0.46760   0.77200
H          H       0.46760   0.77200   0.77200
H          H       0.98840   0.77200   0.77200
H          H       0.77200   0.98840   0.46760
H          H       0.77200   0.46760   0.98840
C          C       0.75700   0.46900   0.88700
C          C       0.46900   0.75700   0.88700
C          C       0.88700   0.88700   0.75700
C          C       0.88700   0.88700   0.46900
C          C       0.75700   0.88700   0.88700
C          C       0.46900   0.88700   0.88700
C          C       0.88700   0.75700   0.46900
C          C       0.88700   0.46900   0.75700
C          C       0.75700   0.88700   0.46900
C          C       0.46900   0.88700   0.75700
C          C       0.88700   0.46900   0.88700
C          C       0.88700   0.75700   0.88700
C          C       0.53100   0.24300   0.11300
C          C       0.24300   0.53100   0.11300
C          C       0.11300   0.11300   0.24300
C          C       0.11300   0.11300   0.53100
C          C       0.11300   0.24300   0.11300
C          C       0.11300   0.53100   0.11300
C          C       0.24300   0.11300   0.53100
C          C       0.53100   0.11300   0.24300
C          C       0.11300   0.24300   0.53100
C          C       0.11300   0.53100   0.24300
C          C       0.53100   0.11300   0.11300
C          C       0.24300   0.11300   0.11300
C          C       0.06870   0.06870   0.33770
C          C       0.06870   0.06870   0.52490
C          C       0.33770   0.52490   0.06870
C          C       0.52490   0.33770   0.06870
C          C       0.06870   0.33770   0.52490
C          C       0.06870   0.52490   0.33770
C          C       0.33770   0.06870   0.06870
C          C       0.52490   0.06870   0.06870
C          C       0.06870   0.52490   0.06870
C          C       0.06870   0.33770   0.06870
C          C       0.33770   0.06870   0.52490
C          C       0.52490   0.06870   0.33770
C          C       0.93130   0.93130   0.66230
C          C       0.93130   0.93130   0.47510
C          C       0.47510   0.66230   0.93130
C          C       0.66230   0.47510   0.93130
C          C       0.66230   0.93130   0.47510
C          C       0.47510   0.93130   0.66230
C          C       0.93130   0.66230   0.93130
C          C       0.93130   0.47510   0.93130
C          C       0.47510   0.93130   0.93130
C          C       0.66230   0.93130   0.93130
C          C       0.93130   0.66230   0.47510
C          C       0.93130   0.47510   0.66230
C          C       0.80060   0.46840   0.93040
C          C       0.46840   0.80060   0.80060
C          C       0.93040   0.80060   0.80060
C          C       0.80060   0.93040   0.46840
C          C       0.80060   0.93040   0.80060
C          C       0.46840   0.80060   0.93040
C          C       0.93040   0.80060   0.46840
C          C       0.80060   0.46840   0.80060
C          C       0.80060   0.80060   0.46840
C          C       0.46840   0.93040   0.80060
C          C       0.93040   0.46840   0.80060
C          C       0.80060   0.80060   0.93040
C          C       0.53160   0.19940   0.06960
C          C       0.19940   0.53160   0.19940
C          C       0.19940   0.06960   0.19940
C          C       0.06960   0.19940   0.53160
C          C       0.06960   0.19940   0.19940
C          C       0.19940   0.53160   0.06960
C          C       0.19940   0.06960   0.53160
C          C       0.53160   0.19940   0.19940
C          C       0.19940   0.19940   0.53160
C          C       0.06960   0.53160   0.19940
C          C       0.53160   0.06960   0.19940
C          C       0.19940   0.19940   0.06960
O          O       0.11201   0.99247   0.37425
O          O       0.99247   0.11201   0.52127
O          O       0.37425   0.52127   0.11201
O          O       0.52127   0.37425   0.99247
O          O       0.11201   0.37425   0.52127
O          O       0.99247   0.52127   0.37425
O          O       0.37425   0.11201   0.99247
O          O       0.52127   0.99247   0.11201
O          O       0.11201   0.52127   0.99247
O          O       0.99247   0.37425   0.11201
O          O       0.37425   0.99247   0.52127
O          O       0.52127   0.11201   0.37425
O          O       0.00753   0.88799   0.62575
O          O       0.88799   0.00753   0.47873
O          O       0.47873   0.62575   0.88799
O          O       0.62575   0.47873   0.00753
O          O       0.62575   0.88799   0.47873
O          O       0.47873   0.00753   0.62575
O          O       0.88799   0.62575   0.00753
O          O       0.00753   0.47873   0.88799
O          O       0.47873   0.88799   0.00753
O          O       0.62575   0.00753   0.88799
O          O       0.00753   0.62575   0.47873
O          O       0.88799   0.47873   0.62575
O          O       0.88799   0.00753   0.62575
O          O       0.00753   0.88799   0.47873
O          O       0.62575   0.47873   0.88799
O          O       0.47873   0.62575   0.00753
O          O       0.88799   0.62575   0.47873
O          O       0.00753   0.47873   0.62575
O          O       0.62575   0.88799   0.00753
O          O       0.47873   0.00753   0.88799
O          O       0.88799   0.47873   0.00753
O          O       0.00753   0.62575   0.88799
O          O       0.62575   0.00753   0.47873
O          O       0.47873   0.88799   0.62575
O          O       0.99247   0.11201   0.37425
O          O       0.11201   0.99247   0.52127
O          O       0.52127   0.37425   0.11201
O          O       0.37425   0.52127   0.99247
O          O       0.37425   0.11201   0.52127
O          O       0.52127   0.99247   0.37425
O          O       0.11201   0.37425   0.99247
O          O       0.99247   0.52127   0.11201
O          O       0.52127   0.11201   0.99247
O          O       0.37425   0.99247   0.11201
O          O       0.99247   0.37425   0.52127
O          O       0.11201   0.52127   0.37425
