data_crystal
 
_cell_length_a    18.49510
_cell_length_b    18.49510
_cell_length_c    46.33700
_cell_angle_alpha 90.00000
_cell_angle_beta  90.00000
_cell_angle_gamma 120.00000
 
_symmetry_space_group_name_Hall 'P 1'
_symmetry_space_group_name_H-M  'P 1'
_symmetry_int_tables_number      1
 
loop_
_symmetry_equiv_pos_as_xyz
 'x,y,z' 
 
loop_
_atom_site_label
_atom_site_type_symbol
_atom_site_fract_x
_atom_site_fract_y
_atom_site_fract_z
_atom_site_charge
Cu         Cu      0.71464   0.85732   0.35700   0.0000000000
Cu         Cu      0.14268   0.85732   0.35700   0.0000000000
Cu         Cu      0.14268   0.28536   0.35700   0.0000000000
Cu         Cu      0.85732   0.71464   0.64300   0.0000000000
Cu         Cu      0.85732   0.14268   0.64300   0.0000000000
Cu         Cu      0.28536   0.14268   0.64300   0.0000000000
Cu         Cu      0.38131   0.19065   0.69033   0.0000000000
Cu         Cu      0.80935   0.19065   0.69033   0.0000000000
Cu         Cu      0.80935   0.61869   0.69033   0.0000000000
Cu         Cu      0.52399   0.04797   0.97633   0.0000000000
Cu         Cu      0.52399   0.47601   0.97633   0.0000000000
Cu         Cu      0.95203   0.47601   0.97633   0.0000000000
Cu         Cu      0.04797   0.52399   0.02367   0.0000000000
Cu         Cu      0.47601   0.52399   0.02367   0.0000000000
Cu         Cu      0.47601   0.95203   0.02367   0.0000000000
Cu         Cu      0.19065   0.38131   0.30967   0.0000000000
Cu         Cu      0.19065   0.80935   0.30967   0.0000000000
Cu         Cu      0.61869   0.80935   0.30967   0.0000000000
O          O       0.63560   0.74290   0.36740   0.0000000000
O          O       0.25710   0.89270   0.36740   0.0000000000
O          O       0.10730   0.36440   0.36740   0.0000000000
O          O       0.74290   0.63560   0.63260   0.0000000000
O          O       0.89270   0.25710   0.63260   0.0000000000
O          O       0.36440   0.10730   0.63260   0.0000000000
O          O       0.36440   0.25710   0.63260   0.0000000000
O          O       0.74290   0.10730   0.63260   0.0000000000
O          O       0.89270   0.63560   0.63260   0.0000000000
O          O       0.25710   0.36440   0.36740   0.0000000000
O          O       0.10730   0.74290   0.36740   0.0000000000
O          O       0.63560   0.89270   0.36740   0.0000000000
O          O       0.30227   0.07623   0.70073   0.0000000000
O          O       0.92377   0.22603   0.70073   0.0000000000
O          O       0.77397   0.69773   0.70073   0.0000000000
O          O       0.40957   0.96893   0.96593   0.0000000000
O          O       0.55937   0.59043   0.96593   0.0000000000
O          O       0.03107   0.44063   0.96593   0.0000000000
O          O       0.03107   0.59043   0.96593   0.0000000000
O          O       0.40957   0.44063   0.96593   0.0000000000
O          O       0.55937   0.96893   0.96593   0.0000000000
O          O       0.92377   0.69773   0.70073   0.0000000000
O          O       0.77397   0.07623   0.70073   0.0000000000
O          O       0.30227   0.22603   0.70073   0.0000000000
O          O       0.96893   0.40957   0.03407   0.0000000000
O          O       0.59043   0.55937   0.03407   0.0000000000
O          O       0.44063   0.03107   0.03407   0.0000000000
O          O       0.07623   0.30227   0.29927   0.0000000000
O          O       0.22603   0.92377   0.29927   0.0000000000
O          O       0.69773   0.77397   0.29927   0.0000000000
O          O       0.69773   0.92377   0.29927   0.0000000000
O          O       0.07623   0.77397   0.29927   0.0000000000
O          O       0.22603   0.30227   0.29927   0.0000000000
O          O       0.59043   0.03107   0.03407   0.0000000000
O          O       0.44063   0.40957   0.03407   0.0000000000
O          O       0.96893   0.55937   0.03407   0.0000000000
O          O       0.55730   0.70490   0.32780   0.0000000000
O          O       0.29510   0.85240   0.32780   0.0000000000
O          O       0.14760   0.44270   0.32780   0.0000000000
O          O       0.70490   0.55730   0.67220   0.0000000000
O          O       0.85240   0.29510   0.67220   0.0000000000
O          O       0.44270   0.14760   0.67220   0.0000000000
O          O       0.44270   0.29510   0.67220   0.0000000000
O          O       0.70490   0.14760   0.67220   0.0000000000
O          O       0.85240   0.55730   0.67220   0.0000000000
O          O       0.29510   0.44270   0.32780   0.0000000000
O          O       0.14760   0.70490   0.32780   0.0000000000
O          O       0.55730   0.85240   0.32780   0.0000000000
O          O       0.22397   0.03823   0.66113   0.0000000000
O          O       0.96177   0.18573   0.66113   0.0000000000
O          O       0.81427   0.77603   0.66113   0.0000000000
O          O       0.37157   0.89063   0.00553   0.0000000000
O          O       0.51907   0.62843   0.00553   0.0000000000
O          O       0.10937   0.48093   0.00553   0.0000000000
O          O       0.10937   0.62843   0.00553   0.0000000000
O          O       0.37157   0.48093   0.00553   0.0000000000
O          O       0.51907   0.89063   0.00553   0.0000000000
O          O       0.96177   0.77603   0.66113   0.0000000000
O          O       0.81427   0.03823   0.66113   0.0000000000
O          O       0.22397   0.18573   0.66113   0.0000000000
O          O       0.89063   0.37157   0.99447   0.0000000000
O          O       0.62843   0.51907   0.99447   0.0000000000
O          O       0.48093   0.10937   0.99447   0.0000000000
O          O       0.03823   0.22397   0.33887   0.0000000000
O          O       0.18573   0.96177   0.33887   0.0000000000
O          O       0.77603   0.81427   0.33887   0.0000000000
O          O       0.77603   0.96177   0.33887   0.0000000000
O          O       0.03823   0.81427   0.33887   0.0000000000
O          O       0.18573   0.22397   0.33887   0.0000000000
O          O       0.62843   0.10937   0.99447   0.0000000000
O          O       0.48093   0.37157   0.99447   0.0000000000
O          O       0.89063   0.51907   0.99447   0.0000000000
C          C       0.57080   0.69070   0.35330   0.0000000000
C          C       0.30930   0.88010   0.35330   0.0000000000
C          C       0.11990   0.42920   0.35330   0.0000000000
C          C       0.69070   0.57080   0.64670   0.0000000000
C          C       0.88010   0.30930   0.64670   0.0000000000
C          C       0.42920   0.11990   0.64670   0.0000000000
C          C       0.42920   0.30930   0.64670   0.0000000000
C          C       0.69070   0.11990   0.64670   0.0000000000
C          C       0.88010   0.57080   0.64670   0.0000000000
C          C       0.30930   0.42920   0.35330   0.0000000000
C          C       0.11990   0.69070   0.35330   0.0000000000
C          C       0.57080   0.88010   0.35330   0.0000000000
C          C       0.23747   0.02403   0.68663   0.0000000000
C          C       0.97597   0.21343   0.68663   0.0000000000
C          C       0.78657   0.76253   0.68663   0.0000000000
C          C       0.35737   0.90413   0.98003   0.0000000000
C          C       0.54677   0.64263   0.98003   0.0000000000
C          C       0.09587   0.45323   0.98003   0.0000000000
C          C       0.09587   0.64263   0.98003   0.0000000000
C          C       0.35737   0.45323   0.98003   0.0000000000
C          C       0.54677   0.90413   0.98003   0.0000000000
C          C       0.97597   0.76253   0.68663   0.0000000000
C          C       0.78657   0.02403   0.68663   0.0000000000
C          C       0.23747   0.21343   0.68663   0.0000000000
C          C       0.90413   0.35737   0.01997   0.0000000000
C          C       0.64263   0.54677   0.01997   0.0000000000
C          C       0.45323   0.09587   0.01997   0.0000000000
C          C       0.02403   0.23747   0.31337   0.0000000000
C          C       0.21343   0.97597   0.31337   0.0000000000
C          C       0.76253   0.78657   0.31337   0.0000000000
C          C       0.76253   0.97597   0.31337   0.0000000000
C          C       0.02403   0.78657   0.31337   0.0000000000
C          C       0.21343   0.23747   0.31337   0.0000000000
C          C       0.64263   0.09587   0.01997   0.0000000000
C          C       0.45323   0.35737   0.01997   0.0000000000
C          C       0.90413   0.54677   0.01997   0.0000000000
C          C       0.44510   0.55490   0.35730   0.0000000000
C          C       0.44510   0.89020   0.35730   0.0000000000
C          C       0.10980   0.55490   0.35730   0.0000000000
C          C       0.55490   0.44510   0.64270   0.0000000000
C          C       0.89020   0.44510   0.64270   0.0000000000
C          C       0.55490   0.10980   0.64270   0.0000000000
C          C       0.11177   0.88823   0.69063   0.0000000000
C          C       0.11177   0.22353   0.69063   0.0000000000
C          C       0.77647   0.88823   0.69063   0.0000000000
C          C       0.22157   0.77843   0.97603   0.0000000000
C          C       0.55687   0.77843   0.97603   0.0000000000
C          C       0.22157   0.44313   0.97603   0.0000000000
C          C       0.77843   0.22157   0.02397   0.0000000000
C          C       0.77843   0.55687   0.02397   0.0000000000
C          C       0.44313   0.22157   0.02397   0.0000000000
C          C       0.88823   0.11177   0.30937   0.0000000000
C          C       0.22353   0.11177   0.30937   0.0000000000
C          C       0.88823   0.77647   0.30937   0.0000000000
H          H       0.44460   0.55540   0.33730   0.0000000000
H          H       0.44460   0.88920   0.33730   0.0000000000
H          H       0.11080   0.55540   0.33730   0.0000000000
H          H       0.55540   0.44460   0.66270   0.0000000000
H          H       0.88920   0.44460   0.66270   0.0000000000
H          H       0.55540   0.11080   0.66270   0.0000000000
H          H       0.11127   0.88873   0.67063   0.0000000000
H          H       0.11127   0.22253   0.67063   0.0000000000
H          H       0.77747   0.88873   0.67063   0.0000000000
H          H       0.22207   0.77793   0.99603   0.0000000000
H          H       0.55587   0.77793   0.99603   0.0000000000
H          H       0.22207   0.44413   0.99603   0.0000000000
H          H       0.77793   0.22207   0.00397   0.0000000000
H          H       0.77793   0.55587   0.00397   0.0000000000
H          H       0.44413   0.22207   0.00397   0.0000000000
H          H       0.88873   0.11127   0.32937   0.0000000000
H          H       0.22253   0.11127   0.32937   0.0000000000
H          H       0.88873   0.77747   0.32937   0.0000000000
C          C       0.51550   0.61680   0.37130   0.0000000000
C          C       0.38320   0.89870   0.37130   0.0000000000
C          C       0.10130   0.48450   0.37130   0.0000000000
C          C       0.61680   0.51550   0.62870   0.0000000000
C          C       0.89870   0.38320   0.62870   0.0000000000
C          C       0.48450   0.10130   0.62870   0.0000000000
C          C       0.48450   0.38320   0.62870   0.0000000000
C          C       0.61680   0.10130   0.62870   0.0000000000
C          C       0.89870   0.51550   0.62870   0.0000000000
C          C       0.38320   0.48450   0.37130   0.0000000000
C          C       0.10130   0.61680   0.37130   0.0000000000
C          C       0.51550   0.89870   0.37130   0.0000000000
C          C       0.18217   0.95013   0.70463   0.0000000000
C          C       0.04987   0.23203   0.70463   0.0000000000
C          C       0.76797   0.81783   0.70463   0.0000000000
C          C       0.28347   0.84883   0.96203   0.0000000000
C          C       0.56537   0.71653   0.96203   0.0000000000
C          C       0.15117   0.43463   0.96203   0.0000000000
C          C       0.15117   0.71653   0.96203   0.0000000000
C          C       0.28347   0.43463   0.96203   0.0000000000
C          C       0.56537   0.84883   0.96203   0.0000000000
C          C       0.04987   0.81783   0.70463   0.0000000000
C          C       0.76797   0.95013   0.70463   0.0000000000
C          C       0.18217   0.23203   0.70463   0.0000000000
C          C       0.84883   0.28347   0.03797   0.0000000000
C          C       0.71653   0.56537   0.03797   0.0000000000
C          C       0.43463   0.15117   0.03797   0.0000000000
C          C       0.95013   0.18217   0.29537   0.0000000000
C          C       0.23203   0.04987   0.29537   0.0000000000
C          C       0.81783   0.76797   0.29537   0.0000000000
C          C       0.81783   0.04987   0.29537   0.0000000000
C          C       0.95013   0.76797   0.29537   0.0000000000
C          C       0.23203   0.18217   0.29537   0.0000000000
C          C       0.71653   0.15117   0.03797   0.0000000000
C          C       0.43463   0.28347   0.03797   0.0000000000
C          C       0.84883   0.56537   0.03797   0.0000000000
C          C       0.52880   0.60540   0.40000   0.0000000000
C          C       0.39460   0.92340   0.40000   0.0000000000
C          C       0.07660   0.47120   0.40000   0.0000000000
C          C       0.60540   0.52880   0.60000   0.0000000000
C          C       0.92340   0.39460   0.60000   0.0000000000
C          C       0.47120   0.07660   0.60000   0.0000000000
C          C       0.47120   0.39460   0.60000   0.0000000000
C          C       0.60540   0.07660   0.60000   0.0000000000
C          C       0.92340   0.52880   0.60000   0.0000000000
C          C       0.39460   0.47120   0.40000   0.0000000000
C          C       0.07660   0.60540   0.40000   0.0000000000
C          C       0.52880   0.92340   0.40000   0.0000000000
C          C       0.19547   0.93873   0.73333   0.0000000000
C          C       0.06127   0.25673   0.73333   0.0000000000
C          C       0.74327   0.80453   0.73333   0.0000000000
C          C       0.27207   0.86213   0.93333   0.0000000000
C          C       0.59007   0.72793   0.93333   0.0000000000
C          C       0.13787   0.40993   0.93333   0.0000000000
C          C       0.13787   0.72793   0.93333   0.0000000000
C          C       0.27207   0.40993   0.93333   0.0000000000
C          C       0.59007   0.86213   0.93333   0.0000000000
C          C       0.06127   0.80453   0.73333   0.0000000000
C          C       0.74327   0.93873   0.73333   0.0000000000
C          C       0.19547   0.25673   0.73333   0.0000000000
C          C       0.86213   0.27207   0.06667   0.0000000000
C          C       0.72793   0.59007   0.06667   0.0000000000
C          C       0.40993   0.13787   0.06667   0.0000000000
C          C       0.93873   0.19547   0.26667   0.0000000000
C          C       0.25673   0.06127   0.26667   0.0000000000
C          C       0.80453   0.74327   0.26667   0.0000000000
C          C       0.80453   0.06127   0.26667   0.0000000000
C          C       0.93873   0.74327   0.26667   0.0000000000
C          C       0.25673   0.19547   0.26667   0.0000000000
C          C       0.72793   0.13787   0.06667   0.0000000000
C          C       0.40993   0.27207   0.06667   0.0000000000
C          C       0.86213   0.59007   0.06667   0.0000000000
H          H       0.57250   0.64760   0.41050   0.0000000000
H          H       0.35240   0.92490   0.41050   0.0000000000
H          H       0.07510   0.42750   0.41050   0.0000000000
H          H       0.64760   0.57250   0.58950   0.0000000000
H          H       0.92490   0.35240   0.58950   0.0000000000
H          H       0.42750   0.07510   0.58950   0.0000000000
H          H       0.42750   0.35240   0.58950   0.0000000000
H          H       0.64760   0.07510   0.58950   0.0000000000
H          H       0.92490   0.57250   0.58950   0.0000000000
H          H       0.35240   0.42750   0.41050   0.0000000000
H          H       0.07510   0.64760   0.41050   0.0000000000
H          H       0.57250   0.92490   0.41050   0.0000000000
H          H       0.23917   0.98093   0.74383   0.0000000000
H          H       0.01907   0.25823   0.74383   0.0000000000
H          H       0.74177   0.76083   0.74383   0.0000000000
H          H       0.31427   0.90583   0.92283   0.0000000000
H          H       0.59157   0.68573   0.92283   0.0000000000
H          H       0.09417   0.40843   0.92283   0.0000000000
H          H       0.09417   0.68573   0.92283   0.0000000000
H          H       0.31427   0.40843   0.92283   0.0000000000
H          H       0.59157   0.90583   0.92283   0.0000000000
H          H       0.01907   0.76083   0.74383   0.0000000000
H          H       0.74177   0.98093   0.74383   0.0000000000
H          H       0.23917   0.25823   0.74383   0.0000000000
H          H       0.90583   0.31427   0.07717   0.0000000000
H          H       0.68573   0.59157   0.07717   0.0000000000
H          H       0.40843   0.09417   0.07717   0.0000000000
H          H       0.98093   0.23917   0.25617   0.0000000000
H          H       0.25823   0.01907   0.25617   0.0000000000
H          H       0.76083   0.74177   0.25617   0.0000000000
H          H       0.76083   0.01907   0.25617   0.0000000000
H          H       0.98093   0.74177   0.25617   0.0000000000
H          H       0.25823   0.23917   0.25617   0.0000000000
H          H       0.68573   0.09417   0.07717   0.0000000000
H          H       0.40843   0.31427   0.07717   0.0000000000
H          H       0.90583   0.59157   0.07717   0.0000000000
C          C       0.48210   0.51790   0.44400   0.0000000000
C          C       0.48210   0.96420   0.44400   0.0000000000
C          C       0.51790   0.48210   0.55600   0.0000000000
C          C       0.96420   0.48210   0.55600   0.0000000000
C          C       0.51790   0.03580   0.55600   0.0000000000
C          C       0.14877   0.85123   0.77733   0.0000000000
C          C       0.14877   0.29753   0.77733   0.0000000000
C          C       0.70247   0.85123   0.77733   0.0000000000
C          C       0.18457   0.81543   0.88933   0.0000000000
C          C       0.63087   0.81543   0.88933   0.0000000000
C          C       0.18457   0.36913   0.88933   0.0000000000
C          C       0.81543   0.18457   0.11067   0.0000000000
C          C       0.81543   0.63087   0.11067   0.0000000000
C          C       0.36913   0.18457   0.11067   0.0000000000
C          C       0.85123   0.14877   0.22267   0.0000000000
C          C       0.29753   0.14877   0.22267   0.0000000000
C          C       0.85123   0.70247   0.22267   0.0000000000
C          C       0.52380   0.04760   0.45300   0.0000000000
C          C       0.95240   0.47620   0.45300   0.0000000000
C          C       0.47620   0.52380   0.54700   0.0000000000
C          C       0.19047   0.80953   0.78633   0.0000000000
C          C       0.19047   0.38093   0.78633   0.0000000000
C          C       0.71427   0.85713   0.88033   0.0000000000
C          C       0.85713   0.14287   0.11967   0.0000000000
C          C       0.28573   0.14287   0.11967   0.0000000000
C          C       0.80953   0.61907   0.21367   0.0000000000
C          C       0.53320   0.06640   0.48210   0.0000000000
C          C       0.93360   0.46680   0.48210   0.0000000000
C          C       0.46680   0.53320   0.51790   0.0000000000
C          C       0.19987   0.80013   0.81543   0.0000000000
C          C       0.19987   0.39973   0.81543   0.0000000000
C          C       0.73307   0.86653   0.85123   0.0000000000
C          C       0.86653   0.13347   0.14877   0.0000000000
C          C       0.26693   0.13347   0.14877   0.0000000000
C          C       0.80013   0.60027   0.18457   0.0000000000
C          C       0.50100   0.49900   0.50240   0.0000000000
C          C       0.50100   0.00200   0.50240   0.0000000000
C          C       0.99800   0.49900   0.50240   0.0000000000
C          C       0.16767   0.83233   0.83573   0.0000000000
C          C       0.16767   0.33533   0.83573   0.0000000000
C          C       0.66467   0.83233   0.83573   0.0000000000
C          C       0.83433   0.16567   0.16907   0.0000000000
C          C       0.83433   0.66867   0.16907   0.0000000000
C          C       0.33133   0.16567   0.16907   0.0000000000
C          C       0.45940   0.91880   0.49350   0.0000000000
C          C       0.08120   0.54060   0.49350   0.0000000000
C          C       0.54060   0.45940   0.50650   0.0000000000
C          C       0.12607   0.87393   0.82683   0.0000000000
C          C       0.12607   0.25213   0.82683   0.0000000000
C          C       0.58547   0.79273   0.83983   0.0000000000
C          C       0.79273   0.20727   0.16017   0.0000000000
C          C       0.41453   0.20727   0.16017   0.0000000000
C          C       0.87393   0.74787   0.17317   0.0000000000
C          C       0.45050   0.90100   0.46430   0.0000000000
C          C       0.09900   0.54950   0.46430   0.0000000000
C          C       0.54950   0.45050   0.53570   0.0000000000
C          C       0.11717   0.88283   0.79763   0.0000000000
C          C       0.11717   0.23433   0.79763   0.0000000000
C          C       0.56767   0.78383   0.86903   0.0000000000
C          C       0.78383   0.21617   0.13097   0.0000000000
C          C       0.43233   0.21617   0.13097   0.0000000000
C          C       0.88283   0.76567   0.20237   0.0000000000
C          C       0.46890   0.53110   0.41300   0.0000000000
C          C       0.46890   0.93780   0.41300   0.0000000000
C          C       0.06220   0.53110   0.41300   0.0000000000
C          C       0.53110   0.46890   0.58700   0.0000000000
C          C       0.93780   0.46890   0.58700   0.0000000000
C          C       0.53110   0.06220   0.58700   0.0000000000
C          C       0.13557   0.86443   0.74633   0.0000000000
C          C       0.13557   0.27113   0.74633   0.0000000000
C          C       0.72887   0.86443   0.74633   0.0000000000
C          C       0.19777   0.80223   0.92033   0.0000000000
C          C       0.60447   0.80223   0.92033   0.0000000000
C          C       0.19777   0.39553   0.92033   0.0000000000
C          C       0.80223   0.19777   0.07967   0.0000000000
C          C       0.80223   0.60447   0.07967   0.0000000000
C          C       0.39553   0.19777   0.07967   0.0000000000
C          C       0.86443   0.13557   0.25367   0.0000000000
C          C       0.27113   0.13557   0.25367   0.0000000000
C          C       0.86443   0.72887   0.25367   0.0000000000
C          C       0.40970   0.81940   0.45490   0.0000000000
C          C       0.18060   0.59030   0.45490   0.0000000000
C          C       0.59030   0.40970   0.54510   0.0000000000
C          C       0.07637   0.92363   0.78823   0.0000000000
C          C       0.07637   0.15273   0.78823   0.0000000000
C          C       0.48607   0.74303   0.87843   0.0000000000
C          C       0.74303   0.25697   0.12157   0.0000000000
C          C       0.51393   0.25697   0.12157   0.0000000000
C          C       0.92363   0.84727   0.21177   0.0000000000
H          H       0.40190   0.80380   0.43550   0.0000000000
H          H       0.19620   0.59810   0.43550   0.0000000000
H          H       0.59810   0.40190   0.56450   0.0000000000
H          H       0.06857   0.93143   0.76883   0.0000000000
H          H       0.06857   0.13713   0.76883   0.0000000000
H          H       0.47047   0.73523   0.89783   0.0000000000
H          H       0.73523   0.26477   0.10217   0.0000000000
H          H       0.52953   0.26477   0.10217   0.0000000000
H          H       0.93143   0.86287   0.23117   0.0000000000
C          C       0.37740   0.75480   0.47460   0.0000000000
C          C       0.24520   0.62260   0.47460   0.0000000000
C          C       0.62260   0.37740   0.52540   0.0000000000
C          C       0.04407   0.95593   0.80793   0.0000000000
C          C       0.04407   0.08813   0.80793   0.0000000000
C          C       0.42147   0.71073   0.85873   0.0000000000
C          C       0.71073   0.28927   0.14127   0.0000000000
C          C       0.57853   0.28927   0.14127   0.0000000000
C          C       0.95593   0.91187   0.19207   0.0000000000
H          H       0.34990   0.69980   0.46920   0.0000000000
H          H       0.30020   0.65010   0.46920   0.0000000000
H          H       0.65010   0.34990   0.53080   0.0000000000
H          H       0.01657   0.98343   0.80253   0.0000000000
H          H       0.01657   0.03313   0.80253   0.0000000000
H          H       0.36647   0.68323   0.86413   0.0000000000
H          H       0.68323   0.31677   0.13587   0.0000000000
H          H       0.63353   0.31677   0.13587   0.0000000000
H          H       0.98343   0.96687   0.19747   0.0000000000
C          C       0.38650   0.77300   0.50370   0.0000000000
C          C       0.22700   0.61350   0.50370   0.0000000000
C          C       0.61350   0.38650   0.49630   0.0000000000
C          C       0.05317   0.94683   0.83703   0.0000000000
C          C       0.05317   0.10633   0.83703   0.0000000000
C          C       0.43967   0.71983   0.82963   0.0000000000
C          C       0.71983   0.28017   0.17037   0.0000000000
C          C       0.56033   0.28017   0.17037   0.0000000000
C          C       0.94683   0.89367   0.16297   0.0000000000
H          H       0.36590   0.73180   0.51780   0.0000000000
H          H       0.26820   0.63410   0.51780   0.0000000000
H          H       0.63410   0.36590   0.48220   0.0000000000
H          H       0.73180   0.36590   0.48220   0.0000000000
H          H       0.63410   0.26820   0.48220   0.0000000000
H          H       0.03257   0.96743   0.85113   0.0000000000
H          H       0.03257   0.06513   0.85113   0.0000000000
H          H       0.93487   0.96743   0.85113   0.0000000000
H          H       0.30077   0.69923   0.81553   0.0000000000
H          H       0.39847   0.69923   0.81553   0.0000000000
H          H       0.30077   0.60153   0.81553   0.0000000000
H          H       0.69923   0.30077   0.18447   0.0000000000
H          H       0.69923   0.39847   0.18447   0.0000000000
H          H       0.60153   0.30077   0.18447   0.0000000000
H          H       0.06513   0.03257   0.14887   0.0000000000
H          H       0.96743   0.93487   0.14887   0.0000000000
C          C       0.42700   0.57300   0.51340   0.0000000000
C          C       0.42700   0.85400   0.51340   0.0000000000
C          C       0.14600   0.57300   0.51340   0.0000000000
C          C       0.57300   0.42700   0.48660   0.0000000000
C          C       0.85400   0.42700   0.48660   0.0000000000
C          C       0.57300   0.14600   0.48660   0.0000000000
C          C       0.09367   0.90633   0.84673   0.0000000000
C          C       0.09367   0.18733   0.84673   0.0000000000
C          C       0.81267   0.90633   0.84673   0.0000000000
C          C       0.23967   0.76033   0.81993   0.0000000000
C          C       0.52067   0.76033   0.81993   0.0000000000
C          C       0.23967   0.47933   0.81993   0.0000000000
C          C       0.76033   0.23967   0.18007   0.0000000000
C          C       0.76033   0.52067   0.18007   0.0000000000
C          C       0.47933   0.23967   0.18007   0.0000000000
C          C       0.90633   0.09367   0.15327   0.0000000000
C          C       0.18733   0.09367   0.15327   0.0000000000
C          C       0.90633   0.81267   0.15327   0.0000000000
H          H       0.43400   0.86800   0.53280   0.0000000000
H          H       0.13200   0.56600   0.53280   0.0000000000
H          H       0.56600   0.43400   0.46720   0.0000000000
H          H       0.10067   0.89933   0.86613   0.0000000000
H          H       0.10067   0.20133   0.86613   0.0000000000
H          H       0.53467   0.76733   0.80053   0.0000000000
H          H       0.76733   0.23267   0.19947   0.0000000000
H          H       0.46533   0.23267   0.19947   0.0000000000
H          H       0.89933   0.79867   0.13387   0.0000000000
C          C       0.55550   0.11100   0.43260   0.0000000000
C          C       0.88900   0.44450   0.43260   0.0000000000
C          C       0.44450   0.55550   0.56740   0.0000000000
C          C       0.22217   0.77783   0.76593   0.0000000000
C          C       0.22217   0.44433   0.76593   0.0000000000
C          C       0.77767   0.88883   0.90073   0.0000000000
C          C       0.88883   0.11117   0.09927   0.0000000000
C          C       0.22233   0.11117   0.09927   0.0000000000
C          C       0.77783   0.55567   0.23407   0.0000000000
H          H       0.54830   0.09660   0.41310   0.0000000000
H          H       0.90340   0.45170   0.41310   0.0000000000
H          H       0.45170   0.54830   0.58690   0.0000000000
H          H       0.21497   0.78503   0.74643   0.0000000000
H          H       0.21497   0.42993   0.74643   0.0000000000
H          H       0.76327   0.88163   0.92023   0.0000000000
H          H       0.88163   0.11837   0.07977   0.0000000000
H          H       0.23673   0.11837   0.07977   0.0000000000
H          H       0.78503   0.57007   0.25357   0.0000000000
C          C       0.59700   0.19400   0.44120   0.0000000000
C          C       0.80600   0.40300   0.44120   0.0000000000
C          C       0.40300   0.59700   0.55880   0.0000000000
C          C       0.26367   0.73633   0.77453   0.0000000000
C          C       0.26367   0.52733   0.77453   0.0000000000
C          C       0.86067   0.93033   0.89213   0.0000000000
C          C       0.93033   0.06967   0.10787   0.0000000000
C          C       0.13933   0.06967   0.10787   0.0000000000
C          C       0.73633   0.47267   0.22547   0.0000000000
H          H       0.61780   0.23560   0.42720   0.0000000000
H          H       0.76440   0.38220   0.42720   0.0000000000
H          H       0.38220   0.61780   0.57280   0.0000000000
H          H       0.28447   0.71553   0.76053   0.0000000000
H          H       0.28447   0.56893   0.76053   0.0000000000
H          H       0.90227   0.95113   0.90613   0.0000000000
H          H       0.95113   0.04887   0.09387   0.0000000000
H          H       0.09773   0.04887   0.09387   0.0000000000
H          H       0.71553   0.43107   0.23947   0.0000000000
C          C       0.60630   0.21260   0.47020   0.0000000000
C          C       0.78740   0.39370   0.47020   0.0000000000
C          C       0.39370   0.60630   0.52980   0.0000000000
C          C       0.27297   0.72703   0.80353   0.0000000000
C          C       0.27297   0.54593   0.80353   0.0000000000
C          C       0.87927   0.93963   0.86313   0.0000000000
C          C       0.93963   0.06037   0.13687   0.0000000000
C          C       0.12073   0.06037   0.13687   0.0000000000
C          C       0.72703   0.45407   0.19647   0.0000000000
H          H       0.58160   0.16320   0.51000   0.0000000000
H          H       0.83680   0.41840   0.51000   0.0000000000
H          H       0.41840   0.58160   0.49000   0.0000000000
H          H       0.24827   0.75173   0.84333   0.0000000000
H          H       0.24827   0.49653   0.84333   0.0000000000
H          H       0.82987   0.91493   0.82333   0.0000000000
H          H       0.91493   0.08507   0.17667   0.0000000000
H          H       0.17013   0.08507   0.17667   0.0000000000
H          H       0.75173   0.50347   0.15667   0.0000000000
C          C       0.51050   0.02100   0.53400   0.0000000000
C          C       0.97900   0.48950   0.53400   0.0000000000
C          C       0.48950   0.51050   0.46600   0.0000000000
C          C       0.17717   0.82283   0.86733   0.0000000000
C          C       0.17717   0.35433   0.86733   0.0000000000
C          C       0.68767   0.84383   0.79933   0.0000000000
C          C       0.84383   0.15617   0.20067   0.0000000000
C          C       0.31233   0.15617   0.20067   0.0000000000
C          C       0.82283   0.64567   0.13267   0.0000000000
H          H       0.37538   0.64165   0.51654   0.0000000000
C          C       0.04296   0.51665   0.44302   0.0000000000
H          H       0.96577   0.02434   0.14406   0.0000000000
